%mem=30000MB
%nprocshared=15
%chk=au-1to3-ts-2-af21-c-term-level3-freq-se-new.chk
# opt=(ts,readfc,noeigentest) freq=noraman b3lyp/gen pseudo=read

Title Card Required

0 1
 Au                -2.09674500    0.08698700   -0.79087200
 P                 -2.89177700   -1.73779600    0.49060300
 C                 -4.15328400   -2.79046600   -0.37162000
 H                 -4.50176900   -3.55727700    0.33161000
 H                 -3.62298000   -3.30892000   -1.18011000
 C                 -3.68440500   -1.24945600    2.09247900
 H                 -4.10760400   -2.15270100    2.55127500
 H                 -4.51919000   -0.58681000    1.84239100
 C                 -1.51602700   -2.89769500    0.93992900
 H                 -0.75486800   -2.28678100    1.43928900
 H                 -1.07689600   -3.20914200   -0.01517600
 C                 -5.33825700   -1.99776000   -0.94022800
 H                 -5.87857100   -1.45282900   -0.15921700
 H                 -5.00277200   -1.26762900   -1.68417100
 H                 -6.04658600   -2.67786700   -1.42620800
 C                 -1.87435300   -4.12199900    1.79192700
 H                 -0.97000200   -4.71210400    1.97755600
 H                 -2.29044100   -3.83755500    2.76445400
 H                 -2.59714900   -4.77471100    1.29111500
 C                 -2.72657700   -0.54179300    3.06027600
 H                 -2.28866500    0.35102000    2.60361500
 H                 -3.27292900   -0.22267400    3.95380000
 H                 -1.90902200   -1.19578000    3.38183400
 S                 -3.17366400    2.29982300   -0.46500900
 N                  5.02087100   -1.38592800    3.64631200
 C                  4.16503500   -1.68013500    2.49306500
 C                  4.73412500   -1.03652400    1.21297200
 O                  5.14037700    0.12316100    1.24450100
 C                  2.75704900   -1.12225800    2.81651300
 O                  1.76924100   -1.43267400    1.83370200
 N                  4.83103500   -1.76086700    0.04970500
 C                  4.37074400   -3.11624900   -0.22527100
 C                  2.84478300   -3.27802200   -0.15907700
 O                  2.33213100   -3.96847500    0.72994900
 N                  2.08055100   -2.61215300   -1.05769900
 C                  2.46776100   -1.69801400   -2.11631900
 C                  2.87114300   -0.26887400   -1.70852900
 O                  3.64932500    0.34435100   -2.44070000
 C                  1.29596700   -1.56321600   -3.13116800
 S                 -0.40073000   -1.41066600   -2.41887100
 N                  2.22795400    0.27902800   -0.65022200
 C                  2.05293700    1.72443400   -0.56505800
 C                  0.57173200    2.09503100   -0.72215500
 C                  2.55649500    2.23409500    0.80323600
 O                  1.87999300    2.06115800    1.81384100
 N                  3.74606400    2.89293400    0.83015700
 C                  4.78527200    2.86529200   -0.18222800
 C                  6.12869700    3.04093800    0.49901800
 O                  6.28865000    3.29807000    1.67128100
 O                  7.14166300    2.91224100   -0.38108100
 H                  2.47612000   -1.51863700    3.80024800
 H                  2.78979200   -0.03181800    2.87638500
 H                  1.73564500   -2.40322000    1.73873800
 H                  4.08628800   -2.76766600    2.39240800
 H                  5.26341900   -0.39514700    3.60267000
 H                  5.90194500   -1.89052400    3.55962100
 H                  4.78443300   -3.83252800    0.48911600
 H                  4.74329500   -3.38763100   -1.21829400
 H                  5.18530500   -1.21345100   -0.72726200
 H                  1.22725500   -2.48861300   -3.71702000
 H                  1.50386700   -0.73255400   -3.80881000
 H                  3.32409400   -2.09973700   -2.66837500
 H                  1.07711600   -2.68806800   -0.90081800
 H                  0.45091400    3.17284000   -0.87730200
 H                  0.01312800    1.82662300    0.17269300
 H                  2.63362700    2.14412200   -1.38658500
 H                  1.75260400   -0.31055900    0.03263800
 H                  4.67623700    3.68043400   -0.91288500
 H                  4.79969200    1.92562600   -0.74019200
 H                  4.08605000    3.10161500    1.76551700
 H                  7.96404500    3.05382900    0.12487000
 Se                -0.31963900    1.27546200   -2.32252600
 C                 -4.49001200    2.18328000    0.72482500
 C                 -5.75987200    1.69517000    0.35666800
 C                 -6.79798600    1.63186700    1.28680800
 H                 -5.92095800    1.37650000   -0.66895900
 C                 -5.34540600    2.56546500    2.97517600
 C                 -6.59562400    2.06454800    2.60121300
 H                 -7.77193800    1.25577400    0.98213500
 H                 -5.18127000    2.91472700    3.99177000
 H                 -7.40679800    2.02097700    3.32316000
 N                 -4.30324000    2.62411100    2.04928900

C H N O S Se P 0
6-31g(d)
****
Au     0
S    1   1.00
      2.8090000              1.0000000
S    1   1.00
      1.5950000              1.0000000
S    1   1.00
      0.5327000              1.0000000
S    1   1.00
      0.2826000              1.0000000
S    1   1.00
      0.0598000              1.0000000
P    1   1.00
      3.6840000              1.0000000
P    1   1.00
      1.6660000              1.0000000
P    1   1.00
      0.5989000              1.0000000
P    1   1.00
      0.0977000              1.0000000
P    1   1.00
      0.0279000              1.0000000
D    1   1.00
      1.2870000              1.0000000
D    1   1.00
      0.4335000              1.0000000
D    1   1.00
      0.1396000              1.0000000
F    1   1.00
      1.0500000              1.0000000
****

AU     0
AU-ECP     4     60
g potential
  5
1    622.6287956            -60.0000000
2    136.2843607           -555.5292312
2     33.1549781           -168.0019785
2      9.9894895            -63.0399875
2      3.0481312             -4.2516681
s-g potential
  6
0    194.7374304              3.0000000
1    351.5327447             38.6020880
2    122.3270402            864.8370727
2     32.0914617            374.9935520
2      5.2451812            289.7910100
2      4.4916223           -152.4532773
p-g potential
  4
0    420.6158801              2.0000000
1    109.4417815             73.8885625
2     34.1714280            326.6729872
2      5.9879750            126.5814591
d-g potential
  5
0    219.2666158              3.0000000
1    122.7297786             55.6793149
2     63.1063369            449.1987335
2     18.3684520            215.0269091
2      4.4972844             64.0840995
f-g potential
  5
0    108.5506037              4.0000000
1     56.4795527             51.8065335
2     29.2069159            231.2183113
2      9.5440543            119.0047386
2      2.8965118             15.3424188

