%mem=30000MB
%nprocshared=8
# opt freq=noraman b3lyp/gen pseudo=read

Title Card Required

0 1
O        4.403338      -0.669648      -0.502267
O        4.503560       2.860925       0.301498
O        6.879991       1.911874       1.469754
O        7.979229      -0.392311       0.215910
C        4.073950       0.698698      -0.618946
C        4.785093       1.491670       0.470396
C        6.280133       1.231187       0.388384
C        6.584111      -0.256073       0.403250
C        5.777747      -0.936304      -0.708963
H        4.390028       1.062887      -1.616461
H        4.408971       1.133581       1.441899
H        6.651566       1.646648      -0.564209
H        6.280183      -0.677089       1.369829
H        6.099175      -0.523805      -1.681012
H        5.106707       3.346788       0.873581
H        7.828280       1.754929       1.421618
H        8.272243      -1.210109       0.624924
C        5.981377      -2.434103      -0.772728
H        7.006493      -2.629016      -1.117151
H        5.287225      -2.846581      -1.517473
O        5.757951      -2.999553       0.503378
H        5.876959      -3.949711       0.439344
O        2.715200       0.835916      -0.458660
C        1.950444       0.416263      -1.578244
C        0.478977       0.611426      -1.287653
H        2.160634      -0.636997      -1.804595
H        2.231864       1.023529      -2.453310
H       -0.073275       0.420907      -2.211409
H        0.298363       1.649421      -0.992741
S       -0.107346      -0.524161       0.025260
Au      -2.420972      -0.248615       0.046225
P       -4.709212      -0.037312       0.106090
C       -5.541951      -1.409620       0.986520
C       -4.976624      -1.677934       2.378688
H       -5.425864      -2.293405       0.348743
H       -6.613098      -1.183759       1.038119
H       -5.487404      -2.532627       2.832915
H       -3.906754      -1.905499       2.332345
H       -5.111555      -0.820575       3.045269
C       -5.290684       1.482447       0.943154
C       -4.754477       2.766832       0.317968
H       -4.962317       1.400094       1.984942
H       -6.386978       1.471935       0.951384
H       -5.089227       3.634890       0.893986
H       -3.659540       2.770720       0.303674
H       -5.106401       2.896152      -0.710499
C       -5.441498      -0.017508      -1.573583
C       -6.954557       0.161338      -1.659898
H       -5.131002      -0.961278      -2.036634
H       -4.922124       0.774827      -2.124084
H       -7.267701       0.148217      -2.708671
H       -7.491260      -0.641172      -1.145551
H       -7.278091       1.115442      -1.233049

C H O S P 0
6-31g(d)
****
Au     0
S    1   1.00
      2.8090000              1.0000000
S    1   1.00
      1.5950000              1.0000000
S    1   1.00
      0.5327000              1.0000000
S    1   1.00
      0.2826000              1.0000000
S    1   1.00
      0.0598000              1.0000000
P    1   1.00
      3.6840000              1.0000000
P    1   1.00
      1.6660000              1.0000000
P    1   1.00
      0.5989000              1.0000000
P    1   1.00
      0.0977000              1.0000000
P    1   1.00
      0.0279000              1.0000000
D    1   1.00
      1.2870000              1.0000000
D    1   1.00
      0.4335000              1.0000000
D    1   1.00
      0.1396000              1.0000000
F    1   1.00
      1.0500000              1.0000000
****

AU     0
AU-ECP     4     60
g potential
  5
1    622.6287956            -60.0000000
2    136.2843607           -555.5292312
2     33.1549781           -168.0019785
2      9.9894895            -63.0399875
2      3.0481312             -4.2516681
s-g potential
  6
0    194.7374304              3.0000000
1    351.5327447             38.6020880
2    122.3270402            864.8370727
2     32.0914617            374.9935520
2      5.2451812            289.7910100
2      4.4916223           -152.4532773
p-g potential
  4
0    420.6158801              2.0000000
1    109.4417815             73.8885625
2     34.1714280            326.6729872
2      5.9879750            126.5814591
d-g potential
  5
0    219.2666158              3.0000000
1    122.7297786             55.6793149
2     63.1063369            449.1987335
2     18.3684520            215.0269091
2      4.4972844             64.0840995
f-g potential
  5
0    108.5506037              4.0000000
1     56.4795527             51.8065335
2     29.2069159            231.2183113
2      9.5440543            119.0047386
2      2.8965118             15.3424188

