%mem=50000MB
%nprocshared=18
# opt freq=noraman b3lyp/gen pseudo=read

Title Card Required

0 1
 Au                -2.54640200   -0.75823700   -0.12989400
 C                 -5.80250200    0.36058300   -1.08269300
 H                 -6.26280000   -0.62544000   -1.11913200
 H                 -5.10969600    0.43937800   -1.92948900
 C                 -5.48008600   -0.90353500    1.49990500
 H                 -4.75103400   -1.04605700    2.29490900
 H                 -5.52798900   -1.82931200    0.91441500
 C                 -6.82592300    1.49365800   -1.08842200
 H                 -7.52814200    1.42777700   -0.25844700
 H                 -6.33317200    2.46769700   -1.03917200
 H                 -7.39793500    1.45416000   -2.03150100
 C                 -6.84794200   -0.50020300    2.05283600
 H                 -7.19521400   -1.28939800    2.73439500
 H                 -6.79269000    0.43515000    2.62265600
 H                 -7.59812000   -0.39064100    1.27037900
 S                 -2.23562400    0.39979600   -2.36885300
 N                  6.63377000    2.87135600    0.29055700
 C                  5.24303400    2.59859800    0.66480200
 C                  5.01713500    1.10559900    0.96162000
 O                  5.52665900    0.26765800    0.20742600
 C                  4.35732500    3.04092300   -0.51359600
 O                  2.97262700    2.78026900   -0.30278900
 N                  4.32614600    0.69824500    2.06878200
 C                  3.53482000    1.50326900    2.98904700
 C                  2.11340400    1.88163200    2.50235400
 O                  1.86935700    3.05836600    2.22250700
 N                  1.17972800    0.90540900    2.40196200
 C                  1.35065500   -0.53091900    2.59701400
 C                  1.97870600   -1.29356100    1.41760100
 O                  2.76705400   -2.20855000    1.66387000
 C                  0.03962800   -1.22525200    3.06379100
 S                 -1.69210800   -0.67959300    2.50409300
 N                  1.58387000   -0.94321600    0.16589900
 C                  1.69154800   -1.90138500   -0.94540900
 C                  0.30925000   -2.37918300   -1.47837900
 C                  2.46835500   -1.23037800   -2.09647500
 O                  1.91337400   -0.42948200   -2.85037400
 N                  3.77467700   -1.55359300   -2.24185400
 C                  4.61216600   -2.32373800   -1.33425600
 C                  6.06799300   -2.05504100   -1.68321700
 O                  6.43296300   -1.36063700   -2.61341600
 O                  6.89875700   -2.70841500   -0.85994900
 H                  4.54454000    4.10451200   -0.71123100
 H                  4.63384400    2.47159600   -1.40291300
 H                  2.69024900    3.19532200    0.54634500
 H                  5.00117800    3.21641700    1.52877300
 H                  6.92983300    2.12366400   -0.34461700
 H                  7.23573800    2.77620700    1.10717000
 H                  4.03044600    2.44710700    3.20266300
 H                  3.46903700    0.94613900    3.93826900
 H                  4.22780100   -0.31187100    2.11931800
 H                 -0.02622600   -1.04273000    4.17264000
 H                  0.17012200   -2.32337500    2.90637200
 H                  2.06521700   -0.69600800    3.41771100
 H                  0.24705500    1.19890100    2.09869500
 H                  0.45614400   -3.31026800   -2.05130400
 H                 -0.10897400   -1.63870500   -2.17176100
 H                  2.23140300   -2.74665200   -0.54462600
 H                  0.98021600   -0.14374100    0.03150600
 H                  4.44301500   -3.40768600   -1.41590800
 H                  4.45853200   -2.04346800   -0.29016100
 H                  4.28273900   -1.02957800   -2.95072000
 H                  7.80160100   -2.47987800   -1.14089500
 Se                -0.96413700   -2.62430200    0.00348000
 C                 -1.94774300    2.01639700   -1.74307300
 C                 -2.99086500    2.97277800   -1.74846500
 C                 -0.66672500    2.40417700   -1.22443900
 C                 -2.82171700    4.24480000   -1.22207700
 H                 -3.94688000    2.69594800   -2.19540900
 C                 -0.52593300    3.68729400   -0.66755600
 C                 -1.57175900    4.59347300   -0.65577400
 H                 -3.63545200    4.96427700   -1.25076600
 H                  0.43070600    3.96564600   -0.23881000
 H                 -1.43197600    5.57926400   -0.23301100
 N                  0.40192600    1.54036800   -1.21938700
 H                  0.43983000    0.82748700   -1.95288000
 H                  1.32184700    1.96682400   -1.05840300
 S                 -4.70992300    0.40322100    0.42335500

C H N O S Se 0
6-31g(d)
****
Au     0
S    1   1.00
      2.8090000              1.0000000
S    1   1.00
      1.5950000              1.0000000
S    1   1.00
      0.5327000              1.0000000
S    1   1.00
      0.2826000              1.0000000
S    1   1.00
      0.0598000              1.0000000
P    1   1.00
      3.6840000              1.0000000
P    1   1.00
      1.6660000              1.0000000
P    1   1.00
      0.5989000              1.0000000
P    1   1.00
      0.0977000              1.0000000
P    1   1.00
      0.0279000              1.0000000
D    1   1.00
      1.2870000              1.0000000
D    1   1.00
      0.4335000              1.0000000
D    1   1.00
      0.1396000              1.0000000
F    1   1.00
      1.0500000              1.0000000
****

AU     0
AU-ECP     4     60
g potential
  5
1    622.6287956            -60.0000000
2    136.2843607           -555.5292312
2     33.1549781           -168.0019785
2      9.9894895            -63.0399875
2      3.0481312             -4.2516681
s-g potential
  6
0    194.7374304              3.0000000
1    351.5327447             38.6020880
2    122.3270402            864.8370727
2     32.0914617            374.9935520
2      5.2451812            289.7910100
2      4.4916223           -152.4532773
p-g potential
  4
0    420.6158801              2.0000000
1    109.4417815             73.8885625
2     34.1714280            326.6729872
2      5.9879750            126.5814591
d-g potential
  5
0    219.2666158              3.0000000
1    122.7297786             55.6793149
2     63.1063369            449.1987335
2     18.3684520            215.0269091
2      4.4972844             64.0840995
f-g potential
  5
0    108.5506037              4.0000000
1     56.4795527             51.8065335
2     29.2069159            231.2183113
2      9.5440543            119.0047386
2      2.8965118             15.3424188

