%mem=30000MB
%nprocshared=8
# opt freq=noraman b3lyp/gen pseudo=read

Title Card Required

0 1
 Au                -0.25461300   -0.60052400    0.24642800
 S                  1.82529700   -1.53657700    0.74202200
 C                 -3.48442300   -0.75359100   -1.15500000
 C                 -3.72578300   -2.10293800   -0.46393500
 C                 -3.27185100    0.92104100    1.24025000
 C                 -2.52896200    1.95483200    2.09708400
 H                 -4.43122400   -0.21856900   -1.30075900
 H                 -3.04626300   -0.91304200   -2.14787200
 H                 -4.39519100   -2.72323900   -1.06984300
 H                 -4.19143700   -1.97968800    0.51985600
 H                 -2.78693300   -2.64939100   -0.32662100
 H                 -4.23912500    1.31348400    0.90189500
 H                 -3.48040300    0.02411700    1.83471200
 H                 -3.12942600    2.22187700    2.97343300
 H                 -2.32868900    2.87656600    1.53987900
 H                 -1.57080800    1.55973500    2.45047600
 C                  2.93877900   -0.18100800    0.31313700
 C                  3.25448500    0.80382800    1.25711900
 C                  3.53873200   -0.12721600   -0.97050600
 C                  4.13061100    1.84774400    0.95925400
 H                  2.79214000    0.74103100    2.23814500
 C                  4.42018900    0.93163700   -1.25979800
 N                  3.30236400   -1.11936500   -1.91596800
 C                  4.71007700    1.90697000   -0.31092200
 H                  4.35836300    2.60104800    1.70836300
 H                  4.88423700    0.97295700   -2.24362400
 H                  2.48682400   -1.69053500   -1.72329900
 H                  3.38277200   -0.83118000   -2.88220600
 H                  5.39547700    2.71213500   -0.56465300
 S                 -2.30593400    0.35212400   -0.24014600

C H N S 0
6-31g(d)
****
Au     0
S    1   1.00
      2.8090000              1.0000000
S    1   1.00
      1.5950000              1.0000000
S    1   1.00
      0.5327000              1.0000000
S    1   1.00
      0.2826000              1.0000000
S    1   1.00
      0.0598000              1.0000000
P    1   1.00
      3.6840000              1.0000000
P    1   1.00
      1.6660000              1.0000000
P    1   1.00
      0.5989000              1.0000000
P    1   1.00
      0.0977000              1.0000000
P    1   1.00
      0.0279000              1.0000000
D    1   1.00
      1.2870000              1.0000000
D    1   1.00
      0.4335000              1.0000000
D    1   1.00
      0.1396000              1.0000000
F    1   1.00
      1.0500000              1.0000000
****

AU     0
AU-ECP     4     60
g potential
  5
1    622.6287956            -60.0000000
2    136.2843607           -555.5292312
2     33.1549781           -168.0019785
2      9.9894895            -63.0399875
2      3.0481312             -4.2516681
s-g potential
  6
0    194.7374304              3.0000000
1    351.5327447             38.6020880
2    122.3270402            864.8370727
2     32.0914617            374.9935520
2      5.2451812            289.7910100
2      4.4916223           -152.4532773
p-g potential
  4
0    420.6158801              2.0000000
1    109.4417815             73.8885625
2     34.1714280            326.6729872
2      5.9879750            126.5814591
d-g potential
  5
0    219.2666158              3.0000000
1    122.7297786             55.6793149
2     63.1063369            449.1987335
2     18.3684520            215.0269091
2      4.4972844             64.0840995
f-g potential
  5
0    108.5506037              4.0000000
1     56.4795527             51.8065335
2     29.2069159            231.2183113
2      9.5440543            119.0047386
2      2.8965118             15.3424188

