%mem=50000MB
%chk=cpx-new-1.chk
%nprocshared=18
# opt=(ts,readfc,noeigentest) b3lyp/gen pseudo=read freq=noraman

Title Card Required

0 1
 Au                 2.59920900    0.86610000   -0.26056100
 C                  6.09597800    0.47709500   -0.71689300
 H                  6.48283865    1.45204989   -0.39392125
 H                  5.65063342    0.61968112   -1.70926583
 C                  5.18152800    0.67094400    2.06679000
 H                  4.31430200    0.53105300    2.72267500
 H                  5.27504600    1.75492100    1.92637200
 C                  7.22852469   -0.55674788   -0.78908967
 H                  7.75816390   -0.63932710    0.16611557
 H                  6.85030957   -1.55011811   -1.05081026
 H                  7.96103511   -0.25455056   -1.54574636
 C                  6.44911000    0.09521500    2.71250000
 H                  6.64307300    0.59844300    3.66658700
 H                  6.35022400   -0.97513900    2.92101900
 H                  7.33381400    0.23613500    2.08239200
 S                  1.92464600   -0.08469100   -2.53520300
 N                 -6.70537900   -3.00370300    0.20231600
 C                 -5.31946900   -2.72083500    0.58327000
 C                 -5.12433500   -1.22580400    0.90214400
 O                 -5.60507900   -0.38107700    0.14916100
 C                 -4.41562800   -3.13599700   -0.59472800
 O                 -3.04262200   -2.85508900   -0.37400000
 N                 -4.48838500   -0.83851000    2.05580100
 C                 -3.70357500   -1.64989000    2.97667900
 C                 -2.27613000   -1.97973900    2.49089600
 O                 -1.98104000   -3.13729300    2.18232800
 N                 -1.37216100   -0.96710100    2.42200800
 C                 -1.61808500    0.44028400    2.67756400
 C                 -2.24007200    1.23307800    1.51634200
 O                 -3.01645100    2.15437900    1.78667400
 C                 -0.33895000    1.17656800    3.15137300
 S                  1.23135200    0.86214200    2.24906900
 N                 -1.82952600    0.92598600    0.26597200
 C                 -1.90753100    1.92546300   -0.79783600
 C                 -0.49737500    2.30634900   -1.27776000
 C                 -2.72573100    1.35876500   -1.98087000
 O                 -2.20245500    0.60157400   -2.79747400
 N                 -4.02787700    1.72507000   -2.07854200
 C                 -4.84018100    2.43354300   -1.10754400
 C                 -6.29890600    2.15571600   -1.41327800
 O                 -6.70375300    1.53335500   -2.36985700
 O                 -7.10487700    2.72987400   -0.49970700
 H                 -4.59239600   -4.20043800   -0.79751800
 H                 -4.70655100   -2.56539600   -1.48172700
 H                 -2.73719900   -3.29448700    0.44324300
 H                 -5.07140800   -3.34961900    1.44459700
 H                 -7.00047500   -2.26706000   -0.44008400
 H                 -7.31143200   -2.92180700    1.01739600
 H                 -4.18663700   -2.61200100    3.15073500
 H                 -3.67182200   -1.12745800    3.93881400
 H                 -4.42612100    0.17167600    2.14946700
 H                 -0.10472500    0.84223100    4.16990200
 H                 -0.54957200    2.24857900    3.18730700
 H                 -2.33449600    0.53771300    3.49833700
 H                 -0.46294200   -1.21520600    2.03646300
 H                 -0.52042600    3.25788000   -1.82144200
 H                 -0.07271300    1.53973300   -1.92611500
 H                 -2.40287700    2.79018800   -0.35496100
 H                 -1.22788500    0.11571700    0.09117400
 H                 -4.69176500    3.52230800   -1.15636300
 H                 -4.63484300    2.12035300   -0.08085900
 H                 -4.55574800    1.25035800   -2.80619600
 H                 -8.01811200    2.50863600   -0.76257400
 Se                 0.79107900    2.60825400    0.22611500
 C                  1.71369900   -1.79370400   -2.12783600
 C                  2.74374000   -2.71813100   -2.39750600
 C                  0.50274000   -2.27660700   -1.54804700
 C                  2.63157900   -4.06352500   -2.06293500
 H                  3.64057200   -2.34813500   -2.88675100
 C                  0.41251600   -3.63735300   -1.19513800
 C                  1.45994800   -4.51694800   -1.44137900
 H                  3.43997100   -4.75409800   -2.28808800
 H                 -0.50953000   -3.99535100   -0.74502300
 H                  1.35418000   -5.56412100   -1.16936500
 N                 -0.57434100   -1.42431800   -1.30325700
 H                 -0.69079700   -0.69435200   -2.00630800
 H                 -1.45679300   -1.91942400   -1.16478800
 S                  4.69432400   -0.00153100    0.40185800

C H N O S Se 0
6-31g(d)
****
Au     0
S    1   1.00
      2.8090000              1.0000000
S    1   1.00
      1.5950000              1.0000000
S    1   1.00
      0.5327000              1.0000000
S    1   1.00
      0.2826000              1.0000000
S    1   1.00
      0.0598000              1.0000000
P    1   1.00
      3.6840000              1.0000000
P    1   1.00
      1.6660000              1.0000000
P    1   1.00
      0.5989000              1.0000000
P    1   1.00
      0.0977000              1.0000000
P    1   1.00
      0.0279000              1.0000000
D    1   1.00
      1.2870000              1.0000000
D    1   1.00
      0.4335000              1.0000000
D    1   1.00
      0.1396000              1.0000000
F    1   1.00
      1.0500000              1.0000000
****

AU     0
AU-ECP     4     60
g potential
  5
1    622.6287956            -60.0000000
2    136.2843607           -555.5292312
2     33.1549781           -168.0019785
2      9.9894895            -63.0399875
2      3.0481312             -4.2516681
s-g potential
  6
0    194.7374304              3.0000000
1    351.5327447             38.6020880
2    122.3270402            864.8370727
2     32.0914617            374.9935520
2      5.2451812            289.7910100
2      4.4916223           -152.4532773
p-g potential
  4
0    420.6158801              2.0000000
1    109.4417815             73.8885625
2     34.1714280            326.6729872
2      5.9879750            126.5814591
d-g potential
  5
0    219.2666158              3.0000000
1    122.7297786             55.6793149
2     63.1063369            449.1987335
2     18.3684520            215.0269091
2      4.4972844             64.0840995
f-g potential
  5
0    108.5506037              4.0000000
1     56.4795527             51.8065335
2     29.2069159            231.2183113
2      9.5440543            119.0047386
2      2.8965118             15.3424188

