%mem=30000MB
%nprocshared=15
%chk=cpx-new-2.chk
# b3lyp/gen pseudo=read opt=(ts,readfc,noeigentest) freq=noraman

Title Card Required

0 1
Au    -2.490863    -0.840533    -0.108435
 P    -4.540071     0.098834     0.556089
 C    -4.582415     1.935958     0.731187
 H    -5.597688     2.219344     1.034486
 H    -4.405310     2.350502    -0.267187
 C    -5.110679    -0.589519     2.165106
 H    -4.261782    -0.480175     2.852641
 H    -5.221960    -1.665606     1.988629
 C    -5.823948     0.068878    -1.775670
 H    -5.957527     1.149622    -1.877593
 H    -4.851986    -0.196799    -2.197648
 C    -6.395921     0.003748     2.757582
 H    -6.643908    -0.508868     3.692907
 H    -6.286292     1.068090     2.987728
 H    -7.241069    -0.113769     2.072842
 C    -3.525423     2.483320     1.700734
 H    -2.516844     2.196998     1.386210
 H    -3.567918     3.577309     1.717886
 H    -3.679378     2.124100     2.724465
 S    -1.878130     0.030263    -2.432076
 N     6.853500     2.960078    -0.051572
 C     5.477601     2.701892     0.379855
 C     5.280520     1.219726     0.752973
 O     5.731590     0.346900     0.013802
 C     4.541748     3.086711    -0.783358
 O     3.173906     2.825192    -0.512451
 N     4.676816     0.875539     1.937216
 C     3.926657     1.723142     2.854337
 C     2.487771     2.049682     2.401169
 O     2.192537     3.199213     2.064064
 N     1.574226     1.043350     2.392487
 C     1.816754    -0.357152     2.686246
 C     2.397031    -1.192512     1.533302
 O     3.174008    -2.111399     1.810055
 C     0.546842    -1.066438     3.221997
 S    -1.047577    -0.767517     2.357510
 N     1.951192    -0.922388     0.286491
 C     1.989087    -1.956375    -0.746061
 C     0.562093    -2.340134    -1.170746
 C     2.775466    -1.435440    -1.970970
 O     2.233624    -0.700457    -2.795716
 N     4.071145    -1.816169    -2.095732
 C     4.906934    -2.500018    -1.127013
 C     6.357852    -2.245081    -1.485317
 O     6.738380    -1.657554    -2.473389
 O     7.186623    -2.796491    -0.578153
 H     4.720619     4.142443    -1.025929
 H     4.801175     2.485198    -1.659639
 H     2.896844     3.293448     0.298852
 H     5.260693     3.360347     1.227307
 H     7.123211     2.200485    -0.678212
 H     7.483320     2.899232     0.747169
 H     4.422292     2.686082     2.982373
 H     3.919991     1.232380     3.833498
 H     4.609511    -0.130504     2.065564
 H     0.346222    -0.697306     4.235672
 H     0.750055    -2.138542     3.286486
 H     2.556929    -0.434310     3.487865
 H     0.655710     1.286866     2.026553
 H     0.561202    -3.308906    -1.683593
 H     0.123991    -1.591162    -1.830677
 H     2.490842    -2.810665    -0.290335
 H     1.350893    -0.112923     0.103546
 H     4.748584    -3.588442    -1.135862
 H     4.735268    -2.152012    -0.105369
 H     4.580419    -1.369893    -2.853991
 H     8.093175    -2.591919    -0.875402
Se    -0.682511    -2.581911     0.380191
 C    -1.641555     1.749624    -2.087112
 C    -2.672026     2.673892    -2.355685
 C    -0.409834     2.240326    -1.559999
 C    -2.539243     4.028356    -2.068634
 H    -3.586145     2.296192    -2.805457
 C    -0.298302     3.610919    -1.254469
 C    -1.345796     4.491291    -1.497653
 H    -3.348655     4.718387    -2.291775
 H     0.639739     3.975140    -0.844155
 H    -1.223634     5.545736    -1.263192
 N     0.667464     1.386937    -1.320045
 H     0.756837     0.633632    -2.002127
 H     1.557558     1.878465    -1.224347
 C    -6.972089    -0.673702    -2.433649
 H    -7.946190    -0.402682    -1.976322
 H    -7.005133    -0.410223    -3.502179
 H    -6.826547    -1.764927    -2.331465
 O    -5.827712    -0.268864    -0.376895

C H N O S Se P 0
6-31g(d)
****
Au     0
S    1   1.00
      2.8090000              1.0000000
S    1   1.00
      1.5950000              1.0000000
S    1   1.00
      0.5327000              1.0000000
S    1   1.00
      0.2826000              1.0000000
S    1   1.00
      0.0598000              1.0000000
P    1   1.00
      3.6840000              1.0000000
P    1   1.00
      1.6660000              1.0000000
P    1   1.00
      0.5989000              1.0000000
P    1   1.00
      0.0977000              1.0000000
P    1   1.00
      0.0279000              1.0000000
D    1   1.00
      1.2870000              1.0000000
D    1   1.00
      0.4335000              1.0000000
D    1   1.00
      0.1396000              1.0000000
F    1   1.00
      1.0500000              1.0000000
****

AU     0
AU-ECP     4     60
g potential
  5
1    622.6287956            -60.0000000
2    136.2843607           -555.5292312
2     33.1549781           -168.0019785
2      9.9894895            -63.0399875
2      3.0481312             -4.2516681
s-g potential
  6
0    194.7374304              3.0000000
1    351.5327447             38.6020880
2    122.3270402            864.8370727
2     32.0914617            374.9935520
2      5.2451812            289.7910100
2      4.4916223           -152.4532773
p-g potential
  4
0    420.6158801              2.0000000
1    109.4417815             73.8885625
2     34.1714280            326.6729872
2      5.9879750            126.5814591
d-g potential
  5
0    219.2666158              3.0000000
1    122.7297786             55.6793149
2     63.1063369            449.1987335
2     18.3684520            215.0269091
2      4.4972844             64.0840995
f-g potential
  5
0    108.5506037              4.0000000
1     56.4795527             51.8065335
2     29.2069159            231.2183113
2      9.5440543            119.0047386
2      2.8965118             15.3424188

