%mem=50000MB
%nprocshared=12
# opt freq=noraman b3lyp/gen pseudo=read

Title Card Required

0 1
 Au                -2.40693700   -0.83108600    0.00899500
 P                 -4.53121900    0.16917700    0.48024600
 C                 -4.59931900    1.99925000    0.66087900
 H                 -5.62970300    2.26721200    0.93119900
 H                 -4.38916600    2.42740400   -0.32779600
 C                 -5.08014300   -0.53395000    2.08819400
 H                 -4.26203700   -0.37301200    2.80293000
 H                 -5.13605900   -1.61840400    1.93264500
 C                 -5.77835700   -0.11416700   -1.89571600
 H                 -5.98011400    0.93649900   -2.14097500
 H                 -4.77149100   -0.37221100   -2.25913700
 C                 -6.42384300    0.00064200    2.62471600
 H                 -6.69330200   -0.53791200    3.54223700
 H                 -6.36250900    1.06816400    2.86849300
 H                 -7.22648900   -0.14561400    1.89323900
 C                 -3.58773600    2.54146800    1.68547800
 H                 -2.56222500    2.22621300    1.43398700
 H                 -3.61580600    3.63592100    1.68959100
 H                 -3.80282700    2.19628300    2.70026700
 S                 -1.91505800    0.02420900   -2.38841200
 N                  6.87179700    2.87256400   -0.17946400
 C                  5.49797600    2.65743600    0.28471500
 C                  5.26713100    1.19549900    0.69377900
 O                  5.71925300    0.29567300   -0.01145400
 C                  4.55241300    3.03662800   -0.87603600
 O                  3.17336700    2.82778900   -0.58553700
 N                  4.64348400    0.88794200    1.87793400
 C                  3.89664400    1.76058300    2.77202700
 C                  2.45420100    2.09983500    2.31243500
 O                  2.19045500    3.26012800    1.95449600
 N                  1.52433800    1.11929000    2.33546500
 C                  1.68933800   -0.28224000    2.67518500
 C                  2.29764500   -1.15628600    1.56025400
 O                  3.12209300   -2.02870600    1.86454900
 C                  0.36387000   -0.91858100    3.21730500
 S                 -1.33915600   -0.30924700    2.63291400
 N                  1.86931100   -0.95345300    0.28773100
 C                  1.97472000   -2.00164200   -0.72858900
 C                  0.58975400   -2.49755400   -1.24649200
 C                  2.79514300   -1.46386600   -1.91766300
 O                  2.28142000   -0.69486100   -2.73057200
 N                  4.07987000   -1.87074600   -2.03843900
 C                  4.88918700   -2.57729800   -1.05735500
 C                  6.34598700   -2.35456800   -1.40337800
 O                  6.75110800   -1.78237800   -2.40038500
 O                  7.16076400   -2.90389700   -0.48237400
 H                  4.76253900    4.07878100   -1.15740000
 H                  4.78247000    2.39981700   -1.73539700
 H                  2.93624000    3.28394400    0.24925800
 H                  5.30471600    3.34027600    1.11271800
 H                  7.11150600    2.07053800   -0.76753700
 H                  7.51398500    2.83925300    0.61047700
 H                  4.39994400    2.72462200    2.87196800
 H                  3.87483000    1.29417800    3.76253800
 H                  4.53772100   -0.11154100    2.02203500
 H                  0.34086000   -0.66755200    4.30838400
 H                  0.45206000   -2.02897200    3.10599900
 H                  2.41669500   -0.37763100    3.49146100
 H                  0.56324200    1.39790300    2.07259000
 H                  0.72569000   -3.46945800   -1.74367300
 H                  0.19214600   -1.81277800   -1.99899000
 H                  2.48639600   -2.82741800   -0.23681400
 H                  1.21500200   -0.18531900    0.12094600
 H                  4.70072900   -3.66268200   -1.07338700
 H                  4.70920000   -2.22281200   -0.04111200
 H                  4.61080900   -1.42583700   -2.78109800
 H                  8.07227900   -2.72359300   -0.78020200
 Se                -0.69339300   -2.60050200    0.24453500
 C                 -1.64275200    1.71673000   -2.11948600
 C                 -2.67277300    2.65864500   -2.38870400
 C                 -0.38477700    2.21128000   -1.60734600
 C                 -2.53339400    4.00439900   -2.11666900
 H                 -3.59455400    2.27913800   -2.83230500
 C                 -0.27720500    3.59329600   -1.29608600
 C                 -1.32411000    4.46105700   -1.53956900
 H                 -3.33216200    4.70247500   -2.33779300
 H                  0.65616500    3.95970700   -0.88742200
 H                 -1.20525200    5.51648700   -1.30811600
 N                  0.68128500    1.39078600   -1.39577700
 H                  0.79399400    0.56803100   -1.99683400
 H                  1.58184600    1.85252500   -1.21392400
 C                 -6.83668100   -1.02489000   -2.47789100
 H                 -7.82500000   -0.77262900   -2.08869900
 H                 -6.86039800   -0.91430800   -3.56690100
 H                 -6.62115500   -2.07287800   -2.23629900
 O                 -5.81219200   -0.25523600   -0.45468900

C H N O S Se P 0
6-31g(d)
****
Au     0
S    1   1.00
      2.8090000              1.0000000
S    1   1.00
      1.5950000              1.0000000
S    1   1.00
      0.5327000              1.0000000
S    1   1.00
      0.2826000              1.0000000
S    1   1.00
      0.0598000              1.0000000
P    1   1.00
      3.6840000              1.0000000
P    1   1.00
      1.6660000              1.0000000
P    1   1.00
      0.5989000              1.0000000
P    1   1.00
      0.0977000              1.0000000
P    1   1.00
      0.0279000              1.0000000
D    1   1.00
      1.2870000              1.0000000
D    1   1.00
      0.4335000              1.0000000
D    1   1.00
      0.1396000              1.0000000
F    1   1.00
      1.0500000              1.0000000
****

AU     0
AU-ECP     4     60
g potential
  5
1    622.6287956            -60.0000000
2    136.2843607           -555.5292312
2     33.1549781           -168.0019785
2      9.9894895            -63.0399875
2      3.0481312             -4.2516681
s-g potential
  6
0    194.7374304              3.0000000
1    351.5327447             38.6020880
2    122.3270402            864.8370727
2     32.0914617            374.9935520
2      5.2451812            289.7910100
2      4.4916223           -152.4532773
p-g potential
  4
0    420.6158801              2.0000000
1    109.4417815             73.8885625
2     34.1714280            326.6729872
2      5.9879750            126.5814591
d-g potential
  5
0    219.2666158              3.0000000
1    122.7297786             55.6793149
2     63.1063369            449.1987335
2     18.3684520            215.0269091
2      4.4972844             64.0840995
f-g potential
  5
0    108.5506037              4.0000000
1     56.4795527             51.8065335
2     29.2069159            231.2183113
2      9.5440543            119.0047386
2      2.8965118             15.3424188

