%mem=50000MB
%nprocshared=15
%chk=au-1to3-ts-2-af-c-term-level3-se.chk
# opt=(ts,readfc,noeigentest) freq=noraman b3lyp/gen pseudo=read

Title Card Required

0 1
 Au                 0.21942600   -2.04230300   -0.22718100
 P                  0.51946400   -4.09260000   -1.35040500
 C                 -0.32992500   -5.51390200   -0.51236400
 H                 -0.07608400   -6.43616800   -1.04971300
 H                 -1.40692200   -5.34986300   -0.64288500
 C                  2.30741600   -4.56469900   -1.41138000
 H                  2.38503800   -5.58311800   -1.81320100
 H                  2.64209200   -4.58587300   -0.36850100
 C                 -0.09944900   -4.13406000   -3.10369400
 H                  0.36233400   -3.27855700   -3.60961700
 H                 -1.17215500   -3.91066000   -3.05130800
 C                  0.00861400   -5.64834900    0.97904900
 H                  1.07459600   -5.83826200    1.14014400
 H                 -0.25552500   -4.74018900    1.53032100
 H                 -0.54716800   -6.48553100    1.41538400
 C                  0.14950500   -5.42634600   -3.89397300
 H                 -0.24316200   -5.32274100   -4.91171000
 H                  1.21766600   -5.65364700   -3.97471300
 H                 -0.34721200   -6.28842100   -3.43708800
 C                  3.18150500   -3.58081900   -2.20068300
 H                  3.17045300   -2.59186200   -1.73279000
 H                  4.21894600   -3.93188300   -2.20427100
 H                  2.86093100   -3.48813500   -3.24498900
 S                  2.14382400   -1.98144100    1.40416100
 O                  3.65090200   -0.49399800   -0.20573700
 O                  2.95155500    0.46271000    3.26473200
 O                  4.14063000   -0.92084600    4.62593800
 O                  5.48993000    1.73373100    2.70879900
 O                  4.54978600    3.75039300    3.18677600
 O                  5.68123400    2.54388800   -0.07258300
 O                  7.83858600    1.85489800    0.14034300
 O                  5.95787400   -0.22227400   -2.00772300
 O                  7.09295000    1.38236700   -3.14830000
 C                  2.86849700   -0.37610900    0.99424700
 C                  3.77252700    0.14710700    2.13285700
 C                  4.49306900    1.43617500    1.71726400
 C                  5.18371000    1.26616000    0.36720200
 C                  4.16975200    0.74970800   -0.66361700
 C                  3.21418600   -0.16641500    4.44490500
 C                  2.17784800    0.21791900    5.47340100
 C                  5.40552900    2.91687600    3.37692500
 C                  6.53220600    3.01973600    4.37690700
 C                  7.03204900    2.70293200   -0.17064900
 C                  7.36471300    4.04787500   -0.76341200
 C                  4.75193500    0.55981700   -2.05736500
 C                  7.07494000    0.31998500   -2.56372600
 C                  8.27650000   -0.55388300   -2.31307900
 H                  2.05951400    0.35612400    0.81777800
 H                  4.50170600   -0.61535200    2.41486000
 H                  3.78466000    2.26861000    1.67762200
 H                  6.01642300    0.56671800    0.45144600
 H                  3.35051400    1.48524300   -0.75920500
 H                  2.48667600   -0.14472200    6.45466500
 H                  1.21715900   -0.23421700    5.20274300
 H                  2.03747100    1.30273400    5.49296400
 H                  7.49570300    2.92625400    3.86530400
 H                  6.46658000    2.19668800    5.09627100
 H                  6.47331600    3.97679100    4.89643200
 H                  7.32684900    3.94942500   -1.85482200
 H                  8.37764500    4.33301600   -0.47422000
 H                  6.64434200    4.81006900   -0.45761100
 H                  4.03081800    0.01455500   -2.67325600
 H                  4.96959300    1.52574300   -2.51550300
 H                  9.01918400   -0.38636300   -3.09526500
 H                  8.00128100   -1.60936800   -2.25686700
 H                  8.70755900   -0.25456100   -1.35061400
 N                -10.41619400   -0.30152800    2.44033900
 C                 -9.20121200   -0.10246300    1.64749100
 C                 -7.93801400   -0.29877800    2.50608400
 O                 -7.89658300    0.15012600    3.64607800
 C                 -9.22514300    1.34062000    1.09609300
 O                 -8.11031700    1.65120500    0.27595300
 N                 -6.85907200   -0.99289500    2.00484200
 C                 -6.70918700   -1.63823300    0.71045000
 C                 -6.49760700   -0.68405500   -0.47675300
 O                 -7.34360000   -0.63011700   -1.36824100
 N                 -5.36110400    0.07921900   -0.55735800
 C                 -4.44409600    0.48618900    0.51615100
 C                 -3.59646700    1.68451800    0.06271800
 O                 -3.32670300    2.59979200    0.82339200
 C                 -3.47486100   -0.63319700    0.98783600
 S                 -2.40906500   -1.39212900   -0.32694600
 N                 -3.12579900    1.60241800   -1.23064700
 C                 -1.83019800    2.20408000   -1.55757400
 C                 -0.72342600    1.13607500   -1.53893100
 C                 -1.91745900    2.84361400   -2.95814300
 O                 -1.58226800    2.21747300   -3.95770300
 N                 -2.41374500    4.10891200   -3.01870300
 C                 -2.88731300    4.93611800   -1.92785300
 C                 -3.65617600    6.10998700   -2.50793800
 O                 -3.79845100    6.32659900   -3.69095000
 O                 -4.14965300    6.89362100   -1.53310000
 H                -10.18026100    1.48002600    0.57260400
 H                 -9.19329000    2.03860100    1.93894000
 H                 -8.18231600    1.11959000   -0.53567000
 H                 -9.22600600   -0.79168800    0.79693900
 H                -10.26605600    0.15265000    3.34244400
 H                -10.53392200   -1.29219000    2.64809700
 H                 -7.59617900   -2.22276600    0.45463000
 H                 -5.87254500   -2.33976000    0.78017100
 H                 -6.10483200   -1.07445600    2.67631700
 H                 -4.03734000   -1.47248000    1.40656700
 H                 -2.84381700   -0.23650700    1.78695700
 H                 -5.00696100    0.83171200    1.38890800
 H                 -5.44704500    0.74105300   -1.32235600
 H                  0.25179500    1.59897500   -1.72180900
 H                 -0.88098500    0.40217100   -2.33181700
 H                 -1.64059100    2.95439500   -0.78684300
 H                 -3.27575500    0.70844100   -1.68988800
 H                 -2.06700100    5.34513100   -1.32005000
 H                 -3.54174700    4.39093900   -1.23843600
 H                 -2.54942900    4.49047600   -3.95026300
 H                 -4.62240400    7.62744500   -1.97025500
 Se                -0.59101400    0.28620700    0.09272600

C H N O S Se P 0
6-31g(d)
****
Au     0
S    1   1.00
      2.8090000              1.0000000
S    1   1.00
      1.5950000              1.0000000
S    1   1.00
      0.5327000              1.0000000
S    1   1.00
      0.2826000              1.0000000
S    1   1.00
      0.0598000              1.0000000
P    1   1.00
      3.6840000              1.0000000
P    1   1.00
      1.6660000              1.0000000
P    1   1.00
      0.5989000              1.0000000
P    1   1.00
      0.0977000              1.0000000
P    1   1.00
      0.0279000              1.0000000
D    1   1.00
      1.2870000              1.0000000
D    1   1.00
      0.4335000              1.0000000
D    1   1.00
      0.1396000              1.0000000
F    1   1.00
      1.0500000              1.0000000
****

AU     0
AU-ECP     4     60
g potential
  5
1    622.6287956            -60.0000000
2    136.2843607           -555.5292312
2     33.1549781           -168.0019785
2      9.9894895            -63.0399875
2      3.0481312             -4.2516681
s-g potential
  6
0    194.7374304              3.0000000
1    351.5327447             38.6020880
2    122.3270402            864.8370727
2     32.0914617            374.9935520
2      5.2451812            289.7910100
2      4.4916223           -152.4532773
p-g potential
  4
0    420.6158801              2.0000000
1    109.4417815             73.8885625
2     34.1714280            326.6729872
2      5.9879750            126.5814591
d-g potential
  5
0    219.2666158              3.0000000
1    122.7297786             55.6793149
2     63.1063369            449.1987335
2     18.3684520            215.0269091
2      4.4972844             64.0840995
f-g potential
  5
0    108.5506037              4.0000000
1     56.4795527             51.8065335
2     29.2069159            231.2183113
2      9.5440543            119.0047386
2      2.8965118             15.3424188

Au 1.78

