%mem=30000MB
%nprocshared=8
# opt freq=noraman b3lyp/gen pseudo=read

af

0 1
            79           0       -2.573133   -0.490833   -0.341906
            16           0       -0.603217   -1.404206   -1.209448
            15           0       -4.533752    0.383162    0.472818
             8           0        0.840035    0.646400   -0.362786
             8           0        1.924437   -2.806243   -0.037864
             8           0        2.446166   -3.486778   -2.120337
             8           0        4.371347   -1.345537    0.065312
             8           0        4.749091   -2.235799    2.099725
             8           0        4.023142    1.238591    1.281613
             8           0        5.472755    1.965830   -0.281088
             8           0        2.099666    3.081972   -0.981003
             8           0        1.821672    5.254289   -0.522958
             6           0       -5.739975    0.821431   -0.830867
             6           0       -6.021537   -0.314833   -1.810739
             6           0       -5.428236   -0.759258    1.588663
             6           0       -4.611109   -1.186392    2.804430
             6           0       -4.249173    1.922747    1.424049
             6           0       -5.476403    2.566225    2.062797
             6           0        0.679283   -0.740096   -0.124243
             6           0        2.019497   -1.434004   -0.395108
             6           0        3.111850   -0.812737    0.466300
             6           0        3.143234    0.697721    0.300420
             6           0        1.740203    1.265889    0.529805
             6           0        2.132788   -3.739714   -0.983090
             6           0        1.912851   -5.111892   -0.425457
             6           0        5.098552   -2.037729    0.962122
             6           0        6.378518   -2.513331    0.347467
             6           0        5.156935    1.843204    0.876113
             6           0        5.945144    2.328426    2.053073
             6           0        1.653115    2.761865    0.334858
             6           0        2.144148    4.380821   -1.294335
             6           0        2.640302    4.589604   -2.692291
             1           0       -6.664374    1.155371   -0.345986
             1           0       -5.317583    1.685527   -1.356408
             1           0       -6.715548    0.022382   -2.586655
             1           0       -6.475538   -1.177573   -1.313556
             1           0       -5.100864   -0.650599   -2.298920
             1           0       -6.367189   -0.279742    1.889291
             1           0       -5.694423   -1.631989    0.982595
             1           0       -5.173928   -1.910566    3.401160
             1           0       -4.372379   -0.337312    3.452701
             1           0       -3.669200   -1.655362    2.501220
             1           0       -3.763656    2.612673    0.724328
             1           0       -3.495984    1.678569    2.181329
             1           0       -6.223582    2.850530    1.316190
             1           0       -5.179957    3.475149    2.595691
             1           0       -5.955203    1.901658    2.788186
             1           0        0.395668   -0.898414    0.926305
             1           0        2.270354   -1.345399   -1.456559
             1           0        2.940640   -1.066524    1.517874
             1           0        3.499257    0.966500   -0.697499
             1           0        1.441648    1.065729    1.572692
             1           0        2.223255   -5.861622   -1.152105
             1           0        0.848839   -5.237069   -0.200518
             1           0        2.464000   -5.235480    0.510082
             1           0        6.944541   -1.659337   -0.035141
             1           0        6.157667   -3.166989   -0.501346
             1           0        6.967403   -3.051538    1.088914
             1           0        5.333075    3.004456    2.656613
             1           0        6.843054    2.840750    1.710399
             1           0        6.218168    1.479484    2.686700
             1           0        0.616422    3.087958    0.461594
             1           0        2.272731    3.277333    1.074637
             1           0        2.623027    5.651058   -2.936064
             1           0        2.017711    4.031548   -3.396952
             1           0        3.660816    4.205061   -2.780083

C H O S P 0
6-31g(d)
****
Au     0
S    1   1.00
      2.8090000              1.0000000
S    1   1.00
      1.5950000              1.0000000
S    1   1.00
      0.5327000              1.0000000
S    1   1.00
      0.2826000              1.0000000
S    1   1.00
      0.0598000              1.0000000
P    1   1.00
      3.6840000              1.0000000
P    1   1.00
      1.6660000              1.0000000
P    1   1.00
      0.5989000              1.0000000
P    1   1.00
      0.0977000              1.0000000
P    1   1.00
      0.0279000              1.0000000
D    1   1.00
      1.2870000              1.0000000
D    1   1.00
      0.4335000              1.0000000
D    1   1.00
      0.1396000              1.0000000
F    1   1.00
      1.0500000              1.0000000
****

AU     0
AU-ECP     4     60
g potential
  5
1    622.6287956            -60.0000000
2    136.2843607           -555.5292312
2     33.1549781           -168.0019785
2      9.9894895            -63.0399875
2      3.0481312             -4.2516681
s-g potential
  6
0    194.7374304              3.0000000
1    351.5327447             38.6020880
2    122.3270402            864.8370727
2     32.0914617            374.9935520
2      5.2451812            289.7910100
2      4.4916223           -152.4532773
p-g potential
  4
0    420.6158801              2.0000000
1    109.4417815             73.8885625
2     34.1714280            326.6729872
2      5.9879750            126.5814591
d-g potential
  5
0    219.2666158              3.0000000
1    122.7297786             55.6793149
2     63.1063369            449.1987335
2     18.3684520            215.0269091
2      4.4972844             64.0840995
f-g potential
  5
0    108.5506037              4.0000000
1     56.4795527             51.8065335
2     29.2069159            231.2183113
2      9.5440543            119.0047386
2      2.8965118             15.3424188

