%mem=30000MB
%nprocshared=8
# opt freq=noraman b3lyp/gen pseudo=read

af

0 1
 Au                -2.22072700   -0.69801000   -0.43733700
 S                 -0.20373100   -1.53539800   -1.27838000
 P                 -4.15209500    0.20272100    0.41647600
 O                  1.12330100    0.57804300   -0.39808600
 O                  2.36320600   -2.82023400   -0.05283200
 O                  2.92749800   -3.48066400   -2.13073700
 O                  4.73749600   -1.24296700    0.08308500
 O                  5.13192600   -2.12129400    2.11947800
 O                  4.24451900    1.31936800    1.30208100
 O                  5.69455500    2.09636500   -0.23606600
 O                  2.27411300    3.07902500   -0.97658700
 O                  1.83194900    5.22585300   -0.52763700
 C                  1.02476700   -0.81562600   -0.16622300
 C                  2.40091400   -1.44515800   -0.41095000
 C                  3.44806600   -0.77347500    0.46839700
 C                  3.40810900    0.73718500    0.30658700
 C                  1.97534200    1.23566300    0.51444000
 C                  2.61534800   -3.74513300   -0.99580800
 C                  2.44538100   -5.12456900   -0.43849900
 C                  5.48578700   -1.90245800    0.98702900
 C                  6.79522500   -2.31297800    0.38769600
 C                  5.35917200    1.97002600    0.91519500
 C                  6.09721000    2.50351900    2.10378200
 C                  1.81742900    2.72673100    0.32748200
 C                  2.23519500    4.37810500   -1.28962800
 C                  2.75303900    4.62295100   -2.67385400
 H                  0.72734000   -0.99083400    0.87787500
 H                  2.66736500   -1.34577700   -1.46770800
 H                  3.27583300   -1.03874500    1.51693600
 H                  3.76582100    1.02556800   -0.68525000
 H                  1.66790200    1.01388300    1.55043900
 H                  2.78767700   -5.86222600   -1.16316700
 H                  1.38591000   -5.29001200   -0.21816600
 H                  2.99656600   -5.22660100    0.49964800
 H                  7.32933400   -1.42909700    0.02758100
 H                  6.61778700   -2.96259600   -0.47424200
 H                  7.39504400   -2.83534400    1.13171000
 H                  5.44970600    3.18266700    2.66574800
 H                  6.99400100    3.02786700    1.77672700
 H                  6.36650200    1.67995400    2.77126900
 H                  0.76315700    2.99924400    0.43561800
 H                  2.39608900    3.26618200    1.08324400
 H                  2.65494300    5.67850900   -2.92404000
 H                  2.20144000    4.01219600   -3.39367400
 H                  3.80454900    4.32537400   -2.72843400
 C                 -6.01482600   -0.39456400    2.32965400
 H                 -6.96534600   -0.72247100    1.88496900
 H                 -5.93661700   -0.83774400    3.33042100
 H                 -6.03134000    0.69158100    2.43681100
 C                 -5.14847900    0.14268900   -2.10664200
 H                 -5.97971500   -0.56467000   -2.23968700
 H                 -5.23505600    0.92225000   -2.87411000
 H                 -4.20796100   -0.39284900   -2.26557700
 C                 -3.49532100    2.79321400    0.62803700
 H                 -3.68519700    3.66992400    1.25673500
 H                 -2.41732300    2.76100200    0.40151600
 H                 -4.04264000    2.91132900   -0.30800400
 C                 -3.23385600    1.44887800    2.60562100
 H                 -2.14547600    1.35348900    2.46160100
 H                 -3.41956100    2.33541600    3.22169900
 H                 -3.59033600    0.57006700    3.14439800
 C                 -4.76630600   -2.24952700    1.38982400
 H                 -3.88880600   -2.50707500    0.78995200
 H                 -4.65392500   -2.70641800    2.38101500
 H                 -5.65629600   -2.68286800    0.91077400
 C                 -6.38124200    1.48995400   -0.50531900
 H                 -6.52436700    2.26457300   -1.26929700
 H                 -7.26472900    0.83583300   -0.51250800
 H                 -6.31289900    1.98015400    0.46786900
 N                 -4.87760600   -0.80954700    1.52611100
 N                 -3.93808800    1.60109700    1.33910900
 N                 -5.16503500    0.74789300   -0.78902100

C H O N S P 0
6-31g(d)
****
Au     0
S    1   1.00
      2.8090000              1.0000000
S    1   1.00
      1.5950000              1.0000000
S    1   1.00
      0.5327000              1.0000000
S    1   1.00
      0.2826000              1.0000000
S    1   1.00
      0.0598000              1.0000000
P    1   1.00
      3.6840000              1.0000000
P    1   1.00
      1.6660000              1.0000000
P    1   1.00
      0.5989000              1.0000000
P    1   1.00
      0.0977000              1.0000000
P    1   1.00
      0.0279000              1.0000000
D    1   1.00
      1.2870000              1.0000000
D    1   1.00
      0.4335000              1.0000000
D    1   1.00
      0.1396000              1.0000000
F    1   1.00
      1.0500000              1.0000000
****

AU     0
AU-ECP     4     60
g potential
  5
1    622.6287956            -60.0000000
2    136.2843607           -555.5292312
2     33.1549781           -168.0019785
2      9.9894895            -63.0399875
2      3.0481312             -4.2516681
s-g potential
  6
0    194.7374304              3.0000000
1    351.5327447             38.6020880
2    122.3270402            864.8370727
2     32.0914617            374.9935520
2      5.2451812            289.7910100
2      4.4916223           -152.4532773
p-g potential
  4
0    420.6158801              2.0000000
1    109.4417815             73.8885625
2     34.1714280            326.6729872
2      5.9879750            126.5814591
d-g potential
  5
0    219.2666158              3.0000000
1    122.7297786             55.6793149
2     63.1063369            449.1987335
2     18.3684520            215.0269091
2      4.4972844             64.0840995
f-g potential
  5
0    108.5506037              4.0000000
1     56.4795527             51.8065335
2     29.2069159            231.2183113
2      9.5440543            119.0047386
2      2.8965118             15.3424188

