%mem=30000MB
%nprocshared=10
%chk=au-1to3-ts-2-af30-c-term-level3-freq-se-2.chk
# opt=(ts,readfc,noeigentest) b3lyp/gen freq=noraman pseudo=read

Title Card Required

0 1
 Au                 0.32667900    1.36891300   -0.13866200
 P                  0.55279800    3.68758100    0.42084200
 S                  2.11936008    0.98205812   -1.84210500
 O                  4.08185782    0.26133475   -0.20540748
 O                  2.83678856   -1.94968407   -2.84985690
 O                  3.60896661   -1.12799055   -4.82707098
 O                  5.53216721   -2.87501715   -2.40137816
 O                  4.69005168   -4.93557611   -1.92755129
 O                  6.29189921   -2.58937683    0.39255358
 O                  8.31191410   -2.05944162   -0.50898127
 O                  6.74230306    0.72852028    0.96409990
 O                  8.21945606   -0.26231460    2.37895182
 C                  3.09593337   -0.32607308   -1.06314267
 C                  3.81423104   -1.21303589   -2.10348911
 C                  4.71393654   -2.24138837   -1.40397288
 C                  5.62951901   -1.57240348   -0.38309986
 C                  4.80187436   -0.69383522    0.56588715
 C                  2.81773991   -1.79643275   -4.20470485
 C                  1.66946495   -2.57781395   -4.79621120
 C                  5.42359266   -4.22101369   -2.57144407
 C                  6.34948710   -4.67128054   -3.67595457
 C                  7.64400790   -2.71011152    0.26373605
 C                  8.18222660   -3.71973510    1.24459083
 C                  5.64295167    0.04690103    1.59663354
 C                  7.99086075    0.46013914    1.43218218
 C                  9.03721080    1.14243420    0.58947547
 H                  2.42511001   -0.96564166   -0.45915915
 H                  4.39988942   -0.59488236   -2.78733665
 H                  4.09965038   -3.00672405   -0.92080762
 H                  6.37895803   -0.96635135   -0.89384007
 H                  4.09326971   -1.33114152    1.12472829
 H                  1.76994656   -2.60605548   -5.88198506
 H                  0.72555569   -2.08850466   -4.53154741
 H                  1.64136060   -3.59211163   -4.38739579
 H                  7.37750540   -4.37179915   -3.44784818
 H                  6.07050228   -4.18203948   -4.61521423
 H                  6.28753464   -5.75448392   -3.78623318
 H                  8.35895299   -3.20101603    2.19440755
 H                  9.13382143   -4.11013244    0.87983520
 H                  7.47047985   -4.53020251    1.41719156
 H                  5.02196152    0.80365240    2.08345759
 H                  6.03564513   -0.64542773    2.34245801
 H                  9.93800291    1.30349163    1.18450730
 H                  8.67027636    2.08507209    0.17731797
 H                  9.28103659    0.47081968   -0.24167199
 N                -10.00703548   -0.23963615   -3.29014098
 C                 -8.89605475   -0.39533121   -2.34895822
 C                 -7.54097049   -0.37753059   -3.08061527
 O                 -7.41428322   -0.96381755   -4.14976532
 C                 -9.07333312   -1.74999437   -1.62558407
 O                 -8.08104509   -2.00368870   -0.64526561
 N                 -6.47276629    0.30700026   -2.54474667
 C                 -6.41735506    1.11053682   -1.33408981
 C                 -6.38238169    0.31171110   -0.02091495
 O                 -7.31318745    0.41832594    0.77626672
 N                 -5.31108384   -0.49188357    0.27339520
 C                 -4.30727902   -1.06748707   -0.63345381
 C                 -3.59417212   -2.24578506    0.05319425
 O                 -3.31043109   -3.26317692   -0.55858657
 C                 -3.23261026   -0.05680800   -1.11988680
 S                 -2.21912527    0.72495985    0.22013730
 N                 -3.27226310   -2.03387906    1.37613137
 C                 -2.09243181   -2.68374938    1.95588843
 C                 -0.90978160   -1.70448024    1.99309958
 C                 -2.43893588   -3.15085167    3.38552027
 O                 -2.19008629   -2.44347247    4.35506554
 N                 -3.05956394   -4.35689949    3.49917242
 C                 -3.45754639   -5.26376653    2.44183160
 C                 -4.46991052   -6.24711094    3.00168029
 O                 -4.82270463   -6.29261653    4.15936894
 O                 -4.91546222   -7.08042285    2.04484616
 H                -10.08848937   -1.77015665   -1.20727852
 H                 -8.99299321   -2.55513852   -2.36321441
 H                 -8.20474832   -1.36217419    0.07566655
 H                 -8.96200740    0.39968685   -1.59879261
 H                 -9.79326040   -0.81517586   -4.10606927
 H                -10.03682400    0.71982837   -3.63219441
 H                 -7.29039978    1.76212173   -1.25141931
 H                 -5.53902515    1.75929109   -1.40149794
 H                 -5.65108168    0.26702630   -3.13612091
 H                 -3.70575770    0.77184641   -1.65352094
 H                 -2.57320979   -0.56270124   -1.82864513
 H                 -4.79210617   -1.48978273   -1.51927198
 H                 -5.51549547   -1.04799391    1.09774798
 H                 -0.01310089   -2.19019574    2.38834307
 H                 -1.12730017   -0.84323579    2.62550055
 H                 -1.86161593   -3.53164759    1.30630973
 H                 -3.40472993   -1.08290228    1.70770505
 H                 -2.61337659   -5.84713391    2.04487602
 H                 -3.90334341   -4.74386994    1.58674022
 H                 -3.36784507   -4.60992770    4.43333676
 H                 -5.55234187   -7.68586256    2.47009686
 Se                -0.40668352   -1.08216118    0.16655092
 C                  2.26752800    4.22078400    0.80947100
 C                  2.53357700    5.21693600    1.76403500
 C                  3.33272200    3.62629400    0.11086200
 C                  3.84726600    5.62136700    2.00493200
 H                  1.72179600    5.67417400    2.32149500
 C                  4.64207700    4.04307800    0.35402000
 H                  3.14628000    2.82703500   -0.60231600
 C                  4.90206100    5.03944300    1.29683200
 H                  4.04482100    6.38923300    2.74797800
 H                  5.45768200    3.57250200   -0.18816600
 H                  5.92406800    5.35579100    1.48687800
 C                 -0.00246700    4.75097000   -0.97256800
 C                 -1.20514600    4.42516900   -1.62222500
 C                  0.73306900    5.86296000   -1.40533700
 C                 -1.66519900    5.20673900   -2.68066200
 H                 -1.77539500    3.55837800   -1.29809100
 C                  0.27040000    6.63877900   -2.47107900
 H                  1.66697400    6.12038800   -0.91626900
 C                 -0.92693100    6.31346800   -3.10898600
 H                 -2.59573200    4.94733000   -3.17830700
 H                  0.85060700    7.49528500   -2.80303200
 H                 -1.28266200    6.91616000   -3.94006800
 C                 -0.46574000    4.22268600    1.85646300
 C                 -0.59634800    3.35419600    2.95242100
 C                 -1.08658700    5.48078600    1.90388700
 C                 -1.31125900    3.74608000    4.08264800
 H                 -0.13910300    2.36843600    2.91819100
 C                 -1.80784200    5.86644700    3.03413800
 H                 -1.00703600    6.15960400    1.06082700
 C                 -1.91761900    5.00325400    4.12519800
 H                 -1.40040900    3.06728000    4.92577900
 H                 -2.28396100    6.84252700    3.05984200
 H                 -2.47878900    5.30639600    5.00306400

C H N O S Se P 0
6-31g(d)
****
Au     0
S    1   1.00
      2.8090000              1.0000000
S    1   1.00
      1.5950000              1.0000000
S    1   1.00
      0.5327000              1.0000000
S    1   1.00
      0.2826000              1.0000000
S    1   1.00
      0.0598000              1.0000000
P    1   1.00
      3.6840000              1.0000000
P    1   1.00
      1.6660000              1.0000000
P    1   1.00
      0.5989000              1.0000000
P    1   1.00
      0.0977000              1.0000000
P    1   1.00
      0.0279000              1.0000000
D    1   1.00
      1.2870000              1.0000000
D    1   1.00
      0.4335000              1.0000000
D    1   1.00
      0.1396000              1.0000000
F    1   1.00
      1.0500000              1.0000000
****

AU     0
AU-ECP     4     60
g potential
  5
1    622.6287956            -60.0000000
2    136.2843607           -555.5292312
2     33.1549781           -168.0019785
2      9.9894895            -63.0399875
2      3.0481312             -4.2516681
s-g potential
  6
0    194.7374304              3.0000000
1    351.5327447             38.6020880
2    122.3270402            864.8370727
2     32.0914617            374.9935520
2      5.2451812            289.7910100
2      4.4916223           -152.4532773
p-g potential
  4
0    420.6158801              2.0000000
1    109.4417815             73.8885625
2     34.1714280            326.6729872
2      5.9879750            126.5814591
d-g potential
  5
0    219.2666158              3.0000000
1    122.7297786             55.6793149
2     63.1063369            449.1987335
2     18.3684520            215.0269091
2      4.4972844             64.0840995
f-g potential
  5
0    108.5506037              4.0000000
1     56.4795527             51.8065335
2     29.2069159            231.2183113
2      9.5440543            119.0047386
2      2.8965118             15.3424188

