%mem=30000MB
%nprocshared=8
# opt freq=noraman b3lyp/gen pseudo=read

Title Card Required

0 1
Au    -0.109877     1.256449     0.031047
 P    -0.388815     3.211280    -1.427053
 C    -2.134966     3.550295    -1.934174
 H    -2.138691     4.511030    -2.463617
 H    -2.718514     3.664441    -1.014898
 C     0.550885     3.045794    -3.017896
 H     0.203396     2.114880    -3.482899
 H     1.597115     2.879851    -2.750413
 C     0.410789     4.230154    -3.982573
 H     1.032000     4.054279    -4.867619
 H    -0.620316     4.364872    -4.324253
 H     0.742806     5.165059    -3.519331
 C    -2.749808     2.442723    -2.798741
 H    -2.814106     1.500756    -2.250247
 H    -3.770317     2.727944    -3.077048
 H    -2.188825     2.281976    -3.725924
 S    -2.253475     1.688334     1.030259
 O    -3.284517    -0.268597    -0.454007
 O    -4.536712     0.575974     2.884992
 O    -5.459479     2.647869     2.707565
 O    -6.845511    -0.536644     1.551927
 O    -6.960856    -2.104613     3.197557
 O    -6.078232    -2.618229    -0.330068
 O    -7.755473    -1.698928    -1.561206
 O    -4.483435    -1.161358    -2.971991
 O    -5.530509    -2.980211    -3.843310
 C    -3.198881     0.134780     0.913550
 C    -4.618300     0.361831     1.470909
 C    -5.486534    -0.882702     1.243666
 C    -5.413775    -1.349147    -0.209804
 C    -3.944636    -1.524052    -0.620985
 C    -4.976205     1.768590     3.381628
 C    -4.754343     1.816490     4.873206
 C    -7.473821    -1.222437     2.549453
 C    -8.883092    -0.706840     2.713938
 C    -7.231358    -2.668219    -1.059635
 C    -7.717874    -4.088427    -1.180725
 C    -3.751932    -1.994646    -2.054678
 C    -5.369361    -1.779705    -3.801127
 C    -6.137392    -0.771104    -4.616065
 H    -2.681228    -0.639110     1.493096
 H    -5.082063     1.230513     0.997924
 H    -5.171466    -1.686495     1.914336
 H    -5.900593    -0.624813    -0.864658
 H    -3.473674    -2.280014     0.029861
 H    -5.237653     2.703447     5.284117
 H    -3.678508     1.856513     5.077582
 H    -5.144767     0.912073     5.349734
 H    -9.432174    -0.813354     1.772016
 H    -8.863751     0.360278     2.959179
 H    -9.383997    -1.263428     3.506778
 H    -7.197940    -4.548031    -2.029610
 H    -8.789824    -4.089756    -1.385352
 H    -7.492859    -4.666951    -0.281774
 H    -2.692508    -1.920775    -2.315334
 H    -4.084170    -3.027858    -2.163445
 H    -6.472398    -1.233554    -5.546314
 H    -5.540511     0.120853    -4.819396
 H    -7.019454    -0.475719    -4.035869
 N    10.930085     1.002370     0.198375
 C     9.601706     0.436495    -0.056619
 C     8.716170     0.535033     1.198625
 O     9.182666     0.238181     2.293357
 C     9.791089    -1.048183    -0.439238
 O     8.578394    -1.731771    -0.689416
 N     7.423732     1.003515     1.115706
 C     6.680759     1.487382    -0.038945
 C     6.147662     0.378725    -0.964410
 O     6.737620     0.114260    -2.012935
 N     5.024198    -0.301528    -0.600139
 C     4.277783    -0.237443     0.660090
 C     3.596150    -1.589230     0.950529
 O     3.797078    -2.189965     1.996115
 C     3.237115     0.912336     0.724438
 S     2.183886     1.047992    -0.786606
 N     2.759134    -2.034844    -0.039194
 C     1.679261    -2.969798     0.278888
 C     0.324353    -2.258651     0.239624
 C     1.695669    -4.112321    -0.757996
 O     1.033429    -4.041057    -1.787609
 N     2.500760    -5.175925    -0.485181
 C     3.363038    -5.381046     0.660630
 C     4.337238    -6.500262     0.340556
 O     4.345091    -7.139102    -0.688848
 O     5.190271    -6.706192     1.360277
 H    10.476910    -1.084732    -1.297688
 H    10.270475    -1.562587     0.399368
 H     8.174442    -1.329615    -1.479253
 H     9.162618     0.955554    -0.912997
 H    11.222554     0.681974     1.122454
 H    10.867111     2.017290     0.265638
 H     7.304284     2.125737    -0.668502
 H     5.859570     2.105347     0.336052
 H     6.972551     1.041785     2.021574
 H     3.746508     1.871265     0.843148
 H     2.602470     0.756498     1.596726
 H     4.974685    -0.106720     1.491824
 H     4.821993    -1.084499    -1.213728
 H    -0.470615    -2.961598     0.494829
 H     0.123258    -1.891278    -0.767091
 H     1.880485    -3.343756     1.285239
 H     2.506866    -1.341541    -0.742054
 H     2.805042    -5.675385     1.562333
 H     3.930837    -4.483310     0.930941
 H     2.572172    -5.874668    -1.217325
 H     5.786195    -7.430779     1.089568
Se     0.176887    -0.753229     1.530057
 C     0.222140     4.733289    -0.621261
 C    -0.643980     5.761759    -0.224156
 C     1.600954     4.857008    -0.364536
 C    -0.139137     6.901265     0.406667
 H    -1.711472     5.683670    -0.399989
 C     2.097709     5.999359     0.260728
 H     2.276265     4.052666    -0.644042
 C     1.229188     7.023509     0.647227
 H    -0.819609     7.692194     0.708885
 H     3.163159     6.088563     0.452192
 H     1.618462     7.911230     1.137057
XX     0.484764     0.831990    -0.651768

C H N O S Se P 0
6-31g(d)
****
Au     0
S    1   1.00
      2.8090000              1.0000000
S    1   1.00
      1.5950000              1.0000000
S    1   1.00
      0.5327000              1.0000000
S    1   1.00
      0.2826000              1.0000000
S    1   1.00
      0.0598000              1.0000000
P    1   1.00
      3.6840000              1.0000000
P    1   1.00
      1.6660000              1.0000000
P    1   1.00
      0.5989000              1.0000000
P    1   1.00
      0.0977000              1.0000000
P    1   1.00
      0.0279000              1.0000000
D    1   1.00
      1.2870000              1.0000000
D    1   1.00
      0.4335000              1.0000000
D    1   1.00
      0.1396000              1.0000000
F    1   1.00
      1.0500000              1.0000000
****

AU     0
AU-ECP     4     60
g potential
  5
1    622.6287956            -60.0000000
2    136.2843607           -555.5292312
2     33.1549781           -168.0019785
2      9.9894895            -63.0399875
2      3.0481312             -4.2516681
s-g potential
  6
0    194.7374304              3.0000000
1    351.5327447             38.6020880
2    122.3270402            864.8370727
2     32.0914617            374.9935520
2      5.2451812            289.7910100
2      4.4916223           -152.4532773
p-g potential
  4
0    420.6158801              2.0000000
1    109.4417815             73.8885625
2     34.1714280            326.6729872
2      5.9879750            126.5814591
d-g potential
  5
0    219.2666158              3.0000000
1    122.7297786             55.6793149
2     63.1063369            449.1987335
2     18.3684520            215.0269091
2      4.4972844             64.0840995
f-g potential
  5
0    108.5506037              4.0000000
1     56.4795527             51.8065335
2     29.2069159            231.2183113
2      9.5440543            119.0047386
2      2.8965118             15.3424188

