%mem=30000MB
%nprocshared=8
# opt freq=noraman b3lyp/gen pseudo=read

af

0 1
 Au                 2.11220200   -1.18957600    0.40386700
 S                  0.01457700   -2.01997200    1.00920600
 P                  4.18905100   -0.39139500   -0.16066500
 O                 -1.01666000    0.35083100    0.44184400
 O                 -2.70712100   -2.77298800   -0.32153800
 O                 -3.37889500   -3.61107900    1.65802300
 O                 -4.84324000   -0.88337000   -0.21531000
 O                 -5.34099100   -1.43212500   -2.34256600
 O                 -4.00541400    1.72085800   -1.10019700
 O                 -5.29896200    2.52966300    0.55653100
 O                 -1.79597900    2.88432200    1.35852900
 O                 -1.04208700    4.98409200    1.19021300
 C                 -1.10700800   -0.99918500    0.02664900
 C                 -2.55581100   -1.46445700    0.21232900
 C                 -3.50056100   -0.54693100   -0.55461200
 C                 -3.25513700    0.91101700   -0.19998400
 C                 -1.76749600    1.23145900   -0.36560000
 C                 -3.10781000   -3.76565300    0.49270600
 C                 -3.16410000   -5.06515000   -0.24954600
 C                 -5.66878900   -1.31470300   -1.18749100
 C                 -7.02600000   -1.61671600   -0.63142700
 C                 -5.00493700    2.48122100   -0.61185100
 C                 -5.67756400    3.23881200   -1.71438900
 C                 -1.40259700    2.64924600    0.00839400
 C                 -1.56278000    4.10863300    1.84178500
 C                 -2.02927800    4.23498600    3.25975100
 H                 -0.83633400   -1.07097700   -1.03688800
 H                 -2.80545100   -1.46950800    1.27772600
 H                 -3.36299500   -0.69384300   -1.63120300
 H                 -3.57220400    1.11536700    0.82602000
 H                 -1.49173200    1.10420800   -1.42593800
 H                 -3.56479000   -5.84414000    0.39773100
 H                 -2.15680000   -5.33823800   -0.57841000
 H                 -3.78407200   -4.95956900   -1.14384700
 H                 -7.45202000   -0.71096800   -0.19012700
 H                 -6.94289100   -2.36143700    0.16510000
 H                 -7.67607800   -1.98602700   -1.42343300
 H                 -4.94644500    3.86598400   -2.23230400
 H                 -6.47613700    3.85581300   -1.30482900
 H                 -6.08507800    2.53671200   -2.44752500
 H                 -0.32155100    2.78646100   -0.09037000
 H                 -1.90545500    3.35884400   -0.65560000
 H                 -1.79219500    5.22776900    3.63995200
 H                 -1.55125900    3.47120000    3.87930200
 H                 -3.10932300    4.06710700    3.30686700
 C                  4.11054900    1.27391500   -0.88585900
 C                  4.85287400    1.64973000   -2.00910700
 C                  3.27575500    2.21735600   -0.27348500
 C                  4.76183000    2.94721600   -2.50862300
 H                  5.50492200    0.93937200   -2.50648500
 C                  3.19456700    3.51416300   -0.76783000
 H                  2.67821100    1.93293000    0.58930100
 C                  3.93676300    3.88094700   -1.88903900
 H                  5.34055700    3.22581400   -3.38423000
 H                  2.54394400    4.23569900   -0.28254300
 H                  3.86777800    4.89144000   -2.28070000
 C                  5.08273500   -1.44353600   -1.35815200
 H                  4.50328200   -1.41549100   -2.28733300
 H                  6.06086300   -0.99816900   -1.56834900
 C                  5.28546300   -0.22553800    1.30170400
 H                  4.76382800    0.46310800    1.97569500
 H                  5.28222800   -1.20216800    1.79878800
 C                  5.24201600   -2.88047600   -0.86659900
 H                  4.27015800   -3.33618600   -0.65179800
 H                  5.73886100   -3.48222400   -1.63326000
 H                  5.85016200   -2.93318200    0.04189300
 C                  6.70524600    0.25127900    1.01947300
 H                  7.24563400    0.38095400    1.96238600
 H                  7.26534400   -0.46955300    0.41629100
 H                  6.71130100    1.21241700    0.49588000

C H O S P 0
6-31g(d)
****
Au     0
S    1   1.00
      2.8090000              1.0000000
S    1   1.00
      1.5950000              1.0000000
S    1   1.00
      0.5327000              1.0000000
S    1   1.00
      0.2826000              1.0000000
S    1   1.00
      0.0598000              1.0000000
P    1   1.00
      3.6840000              1.0000000
P    1   1.00
      1.6660000              1.0000000
P    1   1.00
      0.5989000              1.0000000
P    1   1.00
      0.0977000              1.0000000
P    1   1.00
      0.0279000              1.0000000
D    1   1.00
      1.2870000              1.0000000
D    1   1.00
      0.4335000              1.0000000
D    1   1.00
      0.1396000              1.0000000
F    1   1.00
      1.0500000              1.0000000
****

AU     0
AU-ECP     4     60
g potential
  5
1    622.6287956            -60.0000000
2    136.2843607           -555.5292312
2     33.1549781           -168.0019785
2      9.9894895            -63.0399875
2      3.0481312             -4.2516681
s-g potential
  6
0    194.7374304              3.0000000
1    351.5327447             38.6020880
2    122.3270402            864.8370727
2     32.0914617            374.9935520
2      5.2451812            289.7910100
2      4.4916223           -152.4532773
p-g potential
  4
0    420.6158801              2.0000000
1    109.4417815             73.8885625
2     34.1714280            326.6729872
2      5.9879750            126.5814591
d-g potential
  5
0    219.2666158              3.0000000
1    122.7297786             55.6793149
2     63.1063369            449.1987335
2     18.3684520            215.0269091
2      4.4972844             64.0840995
f-g potential
  5
0    108.5506037              4.0000000
1     56.4795527             51.8065335
2     29.2069159            231.2183113
2      9.5440543            119.0047386
2      2.8965118             15.3424188

