%mem=20000MB
%chk=au-1to3-ts-2-af32-c-term-level3-freq-se.chk
%nprocshared=8
# opt=(ts,readfc,noeigentest) freq=noraman b3lyp/gen pseudo=read

Title Card Required

0 1
 Au                -0.31037900    1.63461200    0.21957200
 P                 -0.58965200    3.62336700   -1.04996300
 C                  0.99159200    4.21646400   -1.82914800
 H                  1.17823800    3.54422400   -2.67557400
 H                  1.77382700    3.98909300   -1.09410000
 C                  1.07342700    5.69057200   -2.24842600
 H                  2.05134500    5.89260400   -2.70025700
 H                  0.30366000    5.96108400   -2.97766900
 H                  0.95703000    6.35228900   -1.38542400
 S                 -2.39508100    1.45798300    1.60649800
 O                 -3.57902300   -0.17063500   -0.12101300
 O                 -3.20310600   -1.02762200    3.42329600
 O                 -4.70667200    0.22043100    4.59073700
 O                 -5.48683300   -2.57899300    2.59089700
 O                 -4.42299700   -4.51337000    3.14299500
 O                 -5.24101100   -3.42400300   -0.18465900
 O                 -7.48154800   -3.03250800   -0.19887100
 O                 -5.66669100   -0.69143200   -2.14335900
 O                 -6.47231800   -2.42997400   -3.36528300
 C                 -2.92684900   -0.20916700    1.15789600
 C                 -3.90304300   -0.81092300    2.19116200
 C                 -4.42138800   -2.17422600    1.71541800
 C                 -4.96278500   -2.09318500    0.29032500
 C                 -3.90951700   -1.45710700   -0.62889500
 C                 -3.68561900   -0.42427500    4.54660600
 C                 -2.75537800   -0.67864000    5.70826600
 C                 -5.36712100   -3.76450300    3.24923400
 C                 -6.58163800   -3.99108900    4.11717800
 C                 -6.54084100   -3.76400800   -0.41468300
 C                 -6.62777900   -5.14472500   -1.01272900
 C                 -4.36586800   -1.30915100   -2.07492600
 C                 -6.64875500   -1.37544800   -2.79420300
 C                 -7.97461900   -0.67166500   -2.66427800
 H                 -2.03705300   -0.86313200    1.08519000
 H                 -4.73899500   -0.13050500    2.36588000
 H                 -3.62423000   -2.92094900    1.77379900
 H                 -5.88029600   -1.50401400    0.26416500
 H                 -3.00876900   -2.09671800   -0.64208500
 H                 -3.23771200   -0.36635900    6.63548000
 H                 -1.83545100   -0.10078600    5.56487100
 H                 -2.47802800   -1.73568900    5.75762600
 H                 -7.48512300   -3.99661000    3.49849800
 H                 -6.68541200   -3.17005600    4.83409400
 H                 -6.48199500   -4.94035200    4.64470400
 H                 -6.47008900   -5.05329800   -2.09391100
 H                 -7.62396800   -5.55442000   -0.83805200
 H                 -5.85931600   -5.80566000   -0.60497300
 H                 -3.66848800   -0.65397500   -2.60325500
 H                 -4.40891200   -2.28122000   -2.56741100
 H                 -8.60472700   -0.92192100   -3.51984800
 H                 -7.85388100    0.41010900   -2.57385600
 H                 -8.45804900   -1.04551400   -1.75402000
 N                 11.07812500    0.28767500    1.55715500
 C                  9.72861300    0.10430000    1.01705700
 C                  8.69788500   -0.05919900    2.14762800
 O                  8.95785100   -0.76496400    3.11552600
 C                  9.73559500   -1.16851000    0.14004100
 O                  8.49135300   -1.43634500   -0.48256100
 N                  7.48770000    0.59771700    2.09007400
 C                  7.01188700    1.55310700    1.10170300
 C                  6.60914000    0.92025100   -0.24155200
 O                  7.31424500    1.09788700   -1.23506000
 N                  5.47983400    0.15411100   -0.32359500
 C                  4.67250100   -0.41291000    0.76272300
 C                  3.95090200   -1.68637000    0.29358500
 O                  3.86450100   -2.66956000    1.01158500
 C                  3.62131600    0.57047900    1.35048500
 S                  2.37629800    1.23584300    0.13898100
 N                  3.38614100   -1.60575200   -0.96112200
 C                  2.19466000   -2.40758700   -1.25913300
 C                  0.93016400   -1.54608000   -1.14387200
 C                  2.31452400   -2.96104700   -2.69539000
 O                  1.82692700   -2.35591600   -3.64362200
 N                  3.00605100   -4.12254900   -2.84752400
 C                  3.69530300   -4.89767300   -1.83565700
 C                  4.65489400   -5.85026800   -2.52700500
 O                  4.77007000   -5.96446700   -3.72715300
 O                  5.35308200   -6.56859200   -1.63045100
 H                 10.55299000   -1.06089400   -0.58597500
 H                  9.95578700   -2.03177900    0.77656800
 H                  8.31126800   -0.70887300   -1.10393000
 H                  9.49581800    0.95554400    0.36896900
 H                 11.18639900   -0.36768800    2.33263000
 H                 11.16192700    1.21630600    1.96846200
 H                  7.78321500    2.28830100    0.85817600
 H                  6.17451900    2.09835800    1.54571800
 H                  6.91937000    0.43180400    2.91168500
 H                  4.12149800    1.45781800    1.75094000
 H                  3.10479000    0.07910800    2.17831600
 H                  5.32394600   -0.73760200    1.57907500
 H                  5.43765100   -0.32819300   -1.21503400
 H                  0.03272700   -2.15375000   -1.28967800
 H                  0.91836400   -0.76104700   -1.90083800
 H                  2.17657800   -3.21245900   -0.52140200
 H                  3.33086200   -0.66742500   -1.34958200
 H                  3.00884800   -5.50322000   -1.22568500
 H                  4.26124900   -4.27169400   -1.13713800
 H                  3.15615700   -4.42422300   -3.80597900
 H                  5.94454700   -7.15762700   -2.13666400
 Se                 0.70926700   -0.69849900    0.64439200
 C                 -1.17154000    5.01580300   -0.00798700
 C                 -2.37044800    5.69470700   -0.25971600
 C                 -0.38671400    5.39095300    1.09640800
 C                 -2.77298200    6.74024000    0.57442800
 H                 -2.99379800    5.40573300   -1.09943700
 C                 -0.78636800    6.44330900    1.91782400
 H                  0.53144400    4.85338400    1.32306600
 C                 -1.98201800    7.11925600    1.65897400
 H                 -3.70801200    7.25592500    0.37414600
 H                 -0.17195800    6.72623600    2.76799600
 H                 -2.29837800    7.93151100    2.30737900
 C                 -1.82446200    3.37182300   -2.37710900
 C                 -1.61173800    3.77018900   -3.70632800
 C                 -3.00954500    2.69062700   -2.04272400
 C                 -2.57274200    3.50179800   -4.68280500
 H                 -0.69908800    4.28104000   -3.99370200
 C                 -3.96720200    2.42984300   -3.02347800
 H                 -3.16822700    2.33544700   -1.02767600
 C                 -3.75156800    2.83585700   -4.34310900
 H                 -2.39487700    3.81062000   -5.70920800
 H                 -4.86511700    1.88148600   -2.75349500
 H                 -4.49475300    2.62370900   -5.10701900

C H N O S Se P 0
6-31g(d)
****
Au     0
S    1   1.00
      2.8090000              1.0000000
S    1   1.00
      1.5950000              1.0000000
S    1   1.00
      0.5327000              1.0000000
S    1   1.00
      0.2826000              1.0000000
S    1   1.00
      0.0598000              1.0000000
P    1   1.00
      3.6840000              1.0000000
P    1   1.00
      1.6660000              1.0000000
P    1   1.00
      0.5989000              1.0000000
P    1   1.00
      0.0977000              1.0000000
P    1   1.00
      0.0279000              1.0000000
D    1   1.00
      1.2870000              1.0000000
D    1   1.00
      0.4335000              1.0000000
D    1   1.00
      0.1396000              1.0000000
F    1   1.00
      1.0500000              1.0000000
****

AU     0
AU-ECP     4     60
g potential
  5
1    622.6287956            -60.0000000
2    136.2843607           -555.5292312
2     33.1549781           -168.0019785
2      9.9894895            -63.0399875
2      3.0481312             -4.2516681
s-g potential
  6
0    194.7374304              3.0000000
1    351.5327447             38.6020880
2    122.3270402            864.8370727
2     32.0914617            374.9935520
2      5.2451812            289.7910100
2      4.4916223           -152.4532773
p-g potential
  4
0    420.6158801              2.0000000
1    109.4417815             73.8885625
2     34.1714280            326.6729872
2      5.9879750            126.5814591
d-g potential
  5
0    219.2666158              3.0000000
1    122.7297786             55.6793149
2     63.1063369            449.1987335
2     18.3684520            215.0269091
2      4.4972844             64.0840995
f-g potential
  5
0    108.5506037              4.0000000
1     56.4795527             51.8065335
2     29.2069159            231.2183113
2      9.5440543            119.0047386
2      2.8965118             15.3424188

