%mem=30000MB
%nprocshared=8
# opt freq=noraman b3lyp/gen pseudo=read

af

0 1
 Au                -1.81144300   -0.63943600   -0.87477100
 S                  0.24413500   -1.55488700   -1.48805900
 P                 -3.85390300    0.25301000   -0.32297600
 O                  1.59035000    0.52487200   -0.55982900
 O                  2.59555000   -2.91376200    0.05217800
 O                  3.32127600   -3.69550300   -1.93120900
 O                  5.02550700   -1.46051800    0.38055200
 O                  5.13550000   -2.27664900    2.47711200
 O                  4.55862900    1.18044400    1.42600500
 O                  6.20406800    1.80389100    0.02017300
 O                  2.93922800    2.92330100   -1.12696200
 O                  2.60660500    5.11409000   -0.81719400
 C                  1.39008600   -0.84874200   -0.28238600
 C                  2.74611800   -1.56070600   -0.35614000
 C                  3.73233000   -0.90424800    0.60193600
 C                  3.79715000    0.59694800    0.37290600
 C                  2.38172100    1.17994000    0.40750500
 C                  2.88685600   -3.89234300   -0.82308200
 C                  2.58912900   -5.23493900   -0.23077000
 C                  5.62526300   -2.12693800    1.38480600
 C                  6.96309200   -2.64067500    0.95072200
 C                  5.74399900    1.75032400    1.13342800
 C                  6.38546500    2.29640300    2.37129000
 C                  2.33264400    2.66598800    0.13753700
 C                  3.02072700    4.20493700   -1.49828600
 C                  3.67847800    4.34515900   -2.83691700
 H                  0.97832400   -0.95991600    0.73095900
 H                  3.12562600   -1.52468900   -1.38200400
 H                  3.43328300   -1.10848000    1.63555300
 H                  4.27117900    0.81798200   -0.58698100
 H                  1.95725000    1.02710500    1.41421400
 H                  2.97949700   -6.01994100   -0.87722700
 H                  1.50431300   -5.34631500   -0.13393700
 H                  3.01926300   -5.31440200    0.77060400
 H                  7.59077400   -1.80616900    0.62538000
 H                  6.83982000   -3.31102100    0.09522900
 H                  7.44102600   -3.16983200    1.77401100
 H                  5.72236100    3.03019600    2.83820700
 H                  7.33823900    2.76030200    2.11988600
 H                  6.54061100    1.48888200    3.09256000
 H                  1.29138500    3.00162300    0.12260100
 H                  2.86338300    3.21161700    0.92346000
 H                  3.74187100    5.39780000   -3.10955100
 H                  3.10364900    3.79853700   -3.59003800
 H                  4.67949400    3.90555800   -2.80527000
 C                 -3.67497500    1.74805900    0.69503600
 C                 -3.37305800    1.61435700    2.05575500
 C                 -3.72964300    3.02612400    0.13166900
 C                 -3.14437700    2.73976000    2.83909000
 H                 -3.31696900    0.62810200    2.50823300
 C                 -3.49853300    4.15132800    0.91915700
 H                 -3.94799500    3.15880300   -0.92319700
 C                 -3.20787100    4.01163200    2.27287200
 H                 -2.91461100    2.62200100    3.89382700
 H                 -3.54857400    5.13849400    0.46965900
 H                 -3.02950400    4.89024800    2.88545600
 C                 -4.80961100    0.71813400   -1.81720700
 H                 -4.18269500    1.43016600   -2.36625400
 H                 -4.82352900   -0.19482700   -2.42330300
 C                 -6.22215200    1.25140200   -1.60837000
 H                 -6.65963000    1.51198300   -2.57719900
 H                 -6.86637100    0.50096200   -1.14207800
 H                 -6.23747100    2.14851300   -0.98249400
 C                 -4.91884300   -0.87308900    0.62443300
 C                 -4.69057600   -2.24982200    0.53761500
 C                 -5.98836600   -0.40185800    1.39504000
 C                 -5.52399000   -3.14425200    1.20338600
 H                 -3.85203600   -2.61898000   -0.04751100
 C                 -6.81566200   -1.29762900    2.06401000
 H                 -6.17305800    0.66476900    1.48234400
 C                 -6.58633700   -2.66887400    1.96716000
 H                 -5.33670500   -4.21130500    1.13085200
 H                 -7.64096400   -0.92334600    2.66221700
 H                 -7.23292000   -3.36554400    2.49248400

C H O S P 0
6-31g(d)
****
Au     0
S    1   1.00
      2.8090000              1.0000000
S    1   1.00
      1.5950000              1.0000000
S    1   1.00
      0.5327000              1.0000000
S    1   1.00
      0.2826000              1.0000000
S    1   1.00
      0.0598000              1.0000000
P    1   1.00
      3.6840000              1.0000000
P    1   1.00
      1.6660000              1.0000000
P    1   1.00
      0.5989000              1.0000000
P    1   1.00
      0.0977000              1.0000000
P    1   1.00
      0.0279000              1.0000000
D    1   1.00
      1.2870000              1.0000000
D    1   1.00
      0.4335000              1.0000000
D    1   1.00
      0.1396000              1.0000000
F    1   1.00
      1.0500000              1.0000000
****

AU     0
AU-ECP     4     60
g potential
  5
1    622.6287956            -60.0000000
2    136.2843607           -555.5292312
2     33.1549781           -168.0019785
2      9.9894895            -63.0399875
2      3.0481312             -4.2516681
s-g potential
  6
0    194.7374304              3.0000000
1    351.5327447             38.6020880
2    122.3270402            864.8370727
2     32.0914617            374.9935520
2      5.2451812            289.7910100
2      4.4916223           -152.4532773
p-g potential
  4
0    420.6158801              2.0000000
1    109.4417815             73.8885625
2     34.1714280            326.6729872
2      5.9879750            126.5814591
d-g potential
  5
0    219.2666158              3.0000000
1    122.7297786             55.6793149
2     63.1063369            449.1987335
2     18.3684520            215.0269091
2      4.4972844             64.0840995
f-g potential
  5
0    108.5506037              4.0000000
1     56.4795527             51.8065335
2     29.2069159            231.2183113
2      9.5440543            119.0047386
2      2.8965118             15.3424188

