%mem=50000MB
%nprocshared=12
# opt freq=noraman b3lyp/gen pseudo=read

Title Card Required

0 1
Au    -0.402370     2.203039     0.358424
 P    -1.123389     3.647948    -1.438133
 C    -0.825445     5.421108    -1.081893
 H    -1.167048     5.997054    -1.952406
 H     0.253945     5.542167    -0.990529
 C    -0.253664     3.219632    -3.009855
 H    -0.537776     2.189330    -3.249442
 H     0.819187     3.188904    -2.777109
 C    -1.554837     5.896418     0.196965
 H    -2.641400     5.782352     0.106535
 H    -1.225963     5.333323     1.077072
 H    -1.338807     6.955223     0.373580
 C    -0.526814     4.159534    -4.192497
 H    -0.029801     3.781770    -5.089082
 H    -1.595517     4.253613    -4.403297
 H    -0.135876     5.172308    -4.004841
 C    -3.385963     2.520712    -2.364847
 H    -3.085124     1.614071    -1.828913
 H    -3.073196     2.434957    -3.414989
 S    -2.680009     1.820473     1.016463
 O    -2.416113    -0.409021    -0.400843
 O    -4.536308    -0.163056     2.562129
 O    -6.653919     0.548993     2.136004
 O    -5.885514    -2.201851     0.805795
 O    -5.936975    -2.988602     2.937692
 O    -3.902982    -3.739420    -0.580654
 O    -5.423242    -3.631492    -2.263782
 O    -2.524284    -1.731684    -2.978000
 O    -2.548433    -3.827539    -3.854378
 C    -2.823313     0.011600     0.906067
 C    -4.280424    -0.411475     1.171460
 C    -4.480530    -1.913002     0.883742
 C    -3.874757    -2.306754    -0.460091
 C    -2.421592    -1.827992    -0.552043
 C    -5.764043     0.308082     2.922066
 C    -5.845749     0.439061     4.421092
 C    -6.505190    -2.715709     1.903487
 C    -7.983556    -2.851901     1.643282
 C    -4.704060    -4.282002    -1.540534
 C    -4.525736    -5.776838    -1.597660
 C    -1.732280    -2.184098    -1.860217
 C    -2.887187    -2.665659    -3.899339
 C    -3.802706    -2.071055    -4.938842
 H    -2.169861    -0.434638     1.666737
 H    -4.977126     0.173552     0.565010
 H    -4.041803    -2.499584     1.696777
 H    -4.457337    -1.864234    -1.268469
 H    -1.837278    -2.282567     0.264415
 H    -5.847344    -0.565094     4.860093
 H    -6.764371     0.960874     4.693516
 H    -4.972530     0.971418     4.809786
 H    -8.168591    -3.286797     0.657025
 H    -8.426802    -1.849128     1.653300
 H    -8.439744    -3.460305     2.425400
 H    -3.667477    -5.986031    -2.247216
 H    -5.414611    -6.232728    -2.037644
 H    -4.322984    -6.196193    -0.609268
 H    -0.757519    -1.691981    -1.911177
 H    -1.590037    -3.261917    -1.932423
 H    -3.708057    -2.632664    -5.870139
 H    -3.592266    -1.011719    -5.103540
 H    -4.831276    -2.173240    -4.573197
 N     9.054053    -2.212182    -0.705342
 C     7.916862    -1.287335    -0.748925
 C     7.165605    -1.234373     0.590326
 O     6.846378    -2.290709     1.138793
 C     6.926008    -1.787866    -1.825242
 O     5.725880    -1.035615    -1.867517
 N     6.862144    -0.035502     1.182886
 C     7.084442     1.306496     0.662616
 C     6.137344     1.721235    -0.478107
 O     6.529848     1.708542    -1.646604
 N     4.863074     2.101877    -0.171625
 C     4.172124     2.009508     1.108668
 C     3.783006     0.565738     1.499507
 O     4.190407     0.078954     2.553651
 C     2.963770     2.970759     1.150084
 S     1.844718     2.884895    -0.322322
 N     2.981166    -0.075918     0.620036
 C     2.239079    -1.268743     0.981867
 C     0.727593    -0.958455     1.190959
 C     2.370586    -2.274636    -0.180438
 O     1.767166    -2.059943    -1.236763
 N     3.185453    -3.347236    -0.017332
 C     4.024927    -3.670774     1.124733
 C     5.039210    -4.715066     0.698506
 O     5.206421    -5.098953    -0.439756
 O     5.689925    -5.219292     1.760560
 H     7.452810    -1.799847    -2.790379
 H     6.633464    -2.814648    -1.583913
 H     5.951513    -0.135700    -2.160528
 H     8.282561    -0.301314    -1.050260
 H     8.733636    -3.059779    -0.233111
 H     9.791467    -1.828383    -0.116827
 H     8.094331     1.390476     0.259894
 H     7.004250     2.005775     1.501683
 H     6.233362    -0.124948     1.979887
 H     3.336631     4.000159     1.189756
 H     2.384563     2.765984     2.053021
 H     4.849825     2.334238     1.905407
 H     4.282717     2.257626    -0.992906
 H     0.256783    -1.788957     1.714836
 H     0.251180    -0.861070     0.211904
 H     2.679821    -1.641492     1.909471
 H     2.617691     0.449738    -0.167795
 H     3.459201    -4.058262     1.974201
 H     4.616573    -2.807497     1.468897
 H     3.350187    -3.903333    -0.847386
 H     6.362968    -5.830859     1.407410
Se     0.352783     0.689730     2.240028
 C    -4.877907     2.765572    -2.269163
 H    -5.150853     3.700764    -2.770644
 H    -5.420909     1.945516    -2.750600
 H    -5.188728     2.823759    -1.222320
 O    -2.716082     3.707726    -1.773920

C H N O S Se P 0
6-31g(d)
****
Au     0
S    1   1.00
      2.8090000              1.0000000
S    1   1.00
      1.5950000              1.0000000
S    1   1.00
      0.5327000              1.0000000
S    1   1.00
      0.2826000              1.0000000
S    1   1.00
      0.0598000              1.0000000
P    1   1.00
      3.6840000              1.0000000
P    1   1.00
      1.6660000              1.0000000
P    1   1.00
      0.5989000              1.0000000
P    1   1.00
      0.0977000              1.0000000
P    1   1.00
      0.0279000              1.0000000
D    1   1.00
      1.2870000              1.0000000
D    1   1.00
      0.4335000              1.0000000
D    1   1.00
      0.1396000              1.0000000
F    1   1.00
      1.0500000              1.0000000
****

AU     0
AU-ECP     4     60
g potential
  5
1    622.6287956            -60.0000000
2    136.2843607           -555.5292312
2     33.1549781           -168.0019785
2      9.9894895            -63.0399875
2      3.0481312             -4.2516681
s-g potential
  6
0    194.7374304              3.0000000
1    351.5327447             38.6020880
2    122.3270402            864.8370727
2     32.0914617            374.9935520
2      5.2451812            289.7910100
2      4.4916223           -152.4532773
p-g potential
  4
0    420.6158801              2.0000000
1    109.4417815             73.8885625
2     34.1714280            326.6729872
2      5.9879750            126.5814591
d-g potential
  5
0    219.2666158              3.0000000
1    122.7297786             55.6793149
2     63.1063369            449.1987335
2     18.3684520            215.0269091
2      4.4972844             64.0840995
f-g potential
  5
0    108.5506037              4.0000000
1     56.4795527             51.8065335
2     29.2069159            231.2183113
2      9.5440543            119.0047386
2      2.8965118             15.3424188

