%mem=30000MB
%nprocshared=8
# opt freq=noraman b3lyp/gen pseudo=read

Title Card Required

0 1
 Au                 2.04061000   -0.51319700   -0.18178700
 P                  3.91785100    0.86742000    0.48120200
 C                  3.81121700    1.37399100    2.25138300
 H                  4.68816800    1.98703700    2.48322400
 H                  3.87562600    0.45742900    2.83566100
 C                  3.98161000    2.42861700   -0.52241900
 H                  2.94494200    2.76772400   -0.60613000
 H                  4.26716800    2.13547400   -1.54242500
 C                  4.88510200    3.54599700    0.00979700
 H                  4.87620600    4.38410200   -0.68425100
 H                  4.53061500    3.92372700    0.97769900
 H                  5.92030900    3.22508000    0.14695800
 C                  2.50324700    2.11748500    2.58235400
 H                  1.63105800    1.48390500    2.40316300
 H                  2.49702200    2.39028900    3.64552700
 H                  2.39062600    3.03610000    2.01110800
 N                 -5.65079200    2.53650500    2.57594600
 C                 -4.54514200    2.45909600    1.61756200
 C                 -4.92674300    1.59463500    0.40582700
 O                 -5.52759700    0.53927900    0.56920400
 C                 -3.33862500    1.83516200    2.37111800
 O                 -2.13552000    1.77864200    1.61171500
 N                 -4.63108200    2.01180300   -0.87758300
 C                 -3.90813400    3.20044000   -1.30974200
 C                 -2.43005300    3.22743500   -0.89609300
 O                 -2.03512700    4.07333200   -0.07396600
 N                 -1.57232200    2.31434300   -1.40897400
 C                 -1.80933000    1.19580600   -2.31533200
 C                 -2.50469000   -0.05794400   -1.74386700
 O                 -3.15753700   -0.75792400   -2.52219900
 C                 -0.44773500    0.75915300   -2.97691100
 S                  1.24848900    0.98364800   -2.09678300
 N                 -2.25384900   -0.37366000   -0.45899500
 C                 -2.30769400   -1.75982300   -0.01464900
 C                 -0.89336600   -2.31549300    0.28935900
 C                 -3.16586400   -1.86945000    1.25783600
 O                 -2.71648600   -1.53685500    2.34821700
 N                 -4.42846500   -2.37497800    1.12971000
 C                 -5.19614200   -2.48006400   -0.10011400
 C                 -6.66640300   -2.35376900    0.24065700
 O                 -7.11530000   -2.32490300    1.36449300
 O                 -7.42122800   -2.31931500   -0.86910800
 H                 -3.20225200    2.43329300    3.29330300
 H                 -3.56663800    0.80603300    2.65778900
 H                 -1.89101400    2.68839900    1.36097600
 H                 -4.27473900    3.47801200    1.32183300
 H                 -6.03419800    1.59613500    2.68017400
 H                 -6.40480900    3.10266100    2.17966500
 H                 -4.35899800    4.11149800   -0.89582100
 H                 -4.00469300    3.25015300   -2.39544000
 H                 -4.89818300    1.33681700   -1.58227400
 H                 -0.26450400    1.46099300   -3.81399600
 H                 -0.54578500   -0.27237200   -3.37251100
 H                 -2.44724800    1.51842900   -3.16262400
 H                 -0.61676800    2.38988000   -1.06850700
 H                 -0.96555400   -3.40310000    0.51283500
 H                 -0.48866200   -1.84347600    1.18680500
 H                 -2.75102200   -2.32172600   -0.83204800
 H                 -1.89315800    0.33260400    0.18678700
 H                 -5.04837400   -3.45076200   -0.59954300
 H                 -4.93425800   -1.70233500   -0.82484700
 H                 -4.98892700   -2.32016000    1.96732400
 H                 -8.34544200   -2.25603300   -0.56219600
 Se                 0.32908500   -2.00433700   -1.22612800
 C                  5.53788500    0.02750400    0.29519400
 C                  5.76209100   -1.14222700    1.04665600
 C                  6.53398000    0.47875500   -0.57267200
 C                  6.98287800   -1.81608700    0.94522400
 H                  4.98174200   -1.53134700    1.69399900
 C                  7.75164700   -0.20503500   -0.67262000
 H                  6.37653500    1.36578000   -1.18998400
 C                  7.97572300   -1.34401400    0.08935800
 H                  7.14644400   -2.71874000    1.52989700
 H                  8.51285700    0.16509300   -1.35809800
 H                  8.91621100   -1.88236200    0.00009800
 Cl                 2.27836400   -1.77182500    1.94887700

C H N O S Se P Cl 0
6-31g(d)
****
Au     0
S    1   1.00
      2.8090000              1.0000000
S    1   1.00
      1.5950000              1.0000000
S    1   1.00
      0.5327000              1.0000000
S    1   1.00
      0.2826000              1.0000000
S    1   1.00
      0.0598000              1.0000000
P    1   1.00
      3.6840000              1.0000000
P    1   1.00
      1.6660000              1.0000000
P    1   1.00
      0.5989000              1.0000000
P    1   1.00
      0.0977000              1.0000000
P    1   1.00
      0.0279000              1.0000000
D    1   1.00
      1.2870000              1.0000000
D    1   1.00
      0.4335000              1.0000000
D    1   1.00
      0.1396000              1.0000000
F    1   1.00
      1.0500000              1.0000000
****

AU     0
AU-ECP     4     60
g potential
  5
1    622.6287956            -60.0000000
2    136.2843607           -555.5292312
2     33.1549781           -168.0019785
2      9.9894895            -63.0399875
2      3.0481312             -4.2516681
s-g potential
  6
0    194.7374304              3.0000000
1    351.5327447             38.6020880
2    122.3270402            864.8370727
2     32.0914617            374.9935520
2      5.2451812            289.7910100
2      4.4916223           -152.4532773
p-g potential
  4
0    420.6158801              2.0000000
1    109.4417815             73.8885625
2     34.1714280            326.6729872
2      5.9879750            126.5814591
d-g potential
  5
0    219.2666158              3.0000000
1    122.7297786             55.6793149
2     63.1063369            449.1987335
2     18.3684520            215.0269091
2      4.4972844             64.0840995
f-g potential
  5
0    108.5506037              4.0000000
1     56.4795527             51.8065335
2     29.2069159            231.2183113
2      9.5440543            119.0047386
2      2.8965118             15.3424188

