%mem=30000MB
%nprocshared=8
# opt freq=noraman b3lyp/gen pseudo=read

af

0 1
C        2.361266       0.966581       1.274657
C        2.134703      -0.532862       1.383833
C        2.134445      -0.533264      -1.383542
C        2.360566       0.966351      -1.274880
C        3.099589       1.368938      -0.000355
H        3.081638      -1.084477       1.387508
H        1.576611      -0.805587       2.282608
H        1.393503       1.481700       1.329390
H        2.940502       1.278647       2.152000
H        3.081686      -1.084390      -1.386925
H        1.576980      -0.806497      -2.282569
H        2.939073       1.278648      -2.152602
H        1.392492       1.480967      -1.328890
H        4.098602       0.911304      -0.000647
H        3.253216       2.453168      -0.000482
S        1.182958      -1.226864      -0.000105
Au      -0.847188      -0.162792       0.000074
Cl      -2.933955       0.821909      -0.000109

C H S Cl 0
6-31g(d)
****
Au     0
S    1   1.00
      2.8090000              1.0000000
S    1   1.00
      1.5950000              1.0000000
S    1   1.00
      0.5327000              1.0000000
S    1   1.00
      0.2826000              1.0000000
S    1   1.00
      0.0598000              1.0000000
P    1   1.00
      3.6840000              1.0000000
P    1   1.00
      1.6660000              1.0000000
P    1   1.00
      0.5989000              1.0000000
P    1   1.00
      0.0977000              1.0000000
P    1   1.00
      0.0279000              1.0000000
D    1   1.00
      1.2870000              1.0000000
D    1   1.00
      0.4335000              1.0000000
D    1   1.00
      0.1396000              1.0000000
F    1   1.00
      1.0500000              1.0000000
****

AU     0
AU-ECP     4     60
g potential
  5
1    622.6287956            -60.0000000
2    136.2843607           -555.5292312
2     33.1549781           -168.0019785
2      9.9894895            -63.0399875
2      3.0481312             -4.2516681
s-g potential
  6
0    194.7374304              3.0000000
1    351.5327447             38.6020880
2    122.3270402            864.8370727
2     32.0914617            374.9935520
2      5.2451812            289.7910100
2      4.4916223           -152.4532773
p-g potential
  4
0    420.6158801              2.0000000
1    109.4417815             73.8885625
2     34.1714280            326.6729872
2      5.9879750            126.5814591
d-g potential
  5
0    219.2666158              3.0000000
1    122.7297786             55.6793149
2     63.1063369            449.1987335
2     18.3684520            215.0269091
2      4.4972844             64.0840995
f-g potential
  5
0    108.5506037              4.0000000
1     56.4795527             51.8065335
2     29.2069159            231.2183113
2      9.5440543            119.0047386
2      2.8965118             15.3424188

