%mem=50000MB
%nprocshared=15
%chk=au-1to3-ts-2-af59-cterm-se-wat-ts.chk
# opt=(ts,readfc,noeigentest) freq=noraman b3lyp/gen pseudo=read

Title Card Required

0 1
Au    -3.185255    -0.361495    -0.157539
 N     7.652284     3.017259    -0.561363
 C     6.235854     2.659519    -0.603803
 C     5.959053     1.290218     0.030258
 O     6.690045     0.337153    -0.278155
 C     5.788968     2.602104    -2.085336
 O     4.481701     2.101973    -2.256434
 N     4.941676     1.112862     0.923740
 C     4.032285     2.101554     1.483805
 C     2.759964     2.319514     0.643141
 O     2.744829     3.167479    -0.247360
 N     1.651394     1.562169     0.898142
 C     1.388669     0.628311     1.982664
 C     1.572647    -0.865824     1.658825
 O     1.831025    -1.644420     2.569777
 C    -0.035288     0.840743     2.553060
 S    -1.430962     0.949217     1.330707
 N     1.352018    -1.258505     0.369913
 C     0.848957    -2.608174     0.104431
 C    -0.666763    -2.588436    -0.132108
 C     1.539772    -3.210716    -1.141804
 O     0.962253    -3.228652    -2.220353
 N     2.784826    -3.752589    -0.975053
 C     3.738337    -3.464710     0.083594
 C     4.845668    -2.554117    -0.450420
 O     5.138382    -2.494550    -1.623438
 O     5.453525    -1.866519     0.528953
 H     5.925210     3.607016    -2.511113
 H     6.454605     1.914981    -2.617698
 H     3.861830     2.689967    -1.787881
 H     5.667059     3.451619    -0.108300
 H     8.191323     2.205720    -0.864210
 H     7.942218     3.208845     0.396411
 H     4.521890     3.074152     1.541620
 H     3.802774     1.796023     2.508014
 H     4.812735     0.147145     1.214760
 H    -0.076650     1.825526     3.034960
 H    -0.245755     0.073907     3.300287
 H     2.072553     0.822793     2.812079
 H     0.852872     1.808499     0.316596
 H    -1.081118    -3.599555    -0.184903
 H    -0.919286    -2.101298    -1.072711
 H     1.086649    -3.193506     0.994811
 H     1.115542    -0.543596    -0.308059
 H     4.206341    -4.396057     0.431770
 H     3.256719    -3.011314     0.949704
 H     3.220131    -3.978923    -1.865644
 H     6.098033    -1.212903     0.118780
Se    -1.688605    -1.713653     1.345617
Cl    -4.152640    -2.212912    -1.638834
 C    -3.012571     3.568984    -0.789295
 C    -3.626253     2.732003    -1.913611
 C    -5.645143     2.126412    -0.056630
 C    -4.841294     2.993284     0.915610
 C    -4.044477     4.106326     0.213299
 H    -4.311240     3.327667    -2.530718
 H    -2.863257     2.311181    -2.574379
 H    -2.260934     2.969561    -0.260498
 H    -2.478908     4.409707    -1.255068
 H    -6.380662     2.724492    -0.610343
 H    -6.182187     1.320310     0.453914
 H    -5.548616     3.439832     1.626635
 H    -4.161728     2.356500     1.498599
 H    -4.740732     4.785717    -0.303407
 H    -3.525571     4.709136     0.969929
 S    -4.618355     1.281322    -1.337256

C H N O S Se Cl 0
6-31g(d)
****
Au     0
S    1   1.00
      2.8090000              1.0000000
S    1   1.00
      1.5950000              1.0000000
S    1   1.00
      0.5327000              1.0000000
S    1   1.00
      0.2826000              1.0000000
S    1   1.00
      0.0598000              1.0000000
P    1   1.00
      3.6840000              1.0000000
P    1   1.00
      1.6660000              1.0000000
P    1   1.00
      0.5989000              1.0000000
P    1   1.00
      0.0977000              1.0000000
P    1   1.00
      0.0279000              1.0000000
D    1   1.00
      1.2870000              1.0000000
D    1   1.00
      0.4335000              1.0000000
D    1   1.00
      0.1396000              1.0000000
F    1   1.00
      1.0500000              1.0000000
****

AU     0
AU-ECP     4     60
g potential
  5
1    622.6287956            -60.0000000
2    136.2843607           -555.5292312
2     33.1549781           -168.0019785
2      9.9894895            -63.0399875
2      3.0481312             -4.2516681
s-g potential
  6
0    194.7374304              3.0000000
1    351.5327447             38.6020880
2    122.3270402            864.8370727
2     32.0914617            374.9935520
2      5.2451812            289.7910100
2      4.4916223           -152.4532773
p-g potential
  4
0    420.6158801              2.0000000
1    109.4417815             73.8885625
2     34.1714280            326.6729872
2      5.9879750            126.5814591
d-g potential
  5
0    219.2666158              3.0000000
1    122.7297786             55.6793149
2     63.1063369            449.1987335
2     18.3684520            215.0269091
2      4.4972844             64.0840995
f-g potential
  5
0    108.5506037              4.0000000
1     56.4795527             51.8065335
2     29.2069159            231.2183113
2      9.5440543            119.0047386
2      2.8965118             15.3424188

