%mem=30000MB
%nprocshared=8
# opt freq=noraman b3lyp/gen pseudo=read

af

0 1
C        3.193503       1.176292       0.708150
C        1.275412      -0.027622       1.398069
C        1.273293       1.224041      -0.676194
H        4.287999       1.180625       0.709753
H        0.897608      -0.929561       1.888265
H        0.893893       2.099088      -0.140569
H        0.893912       1.236220      -1.702053
H        2.836112       2.062459       1.243400
H        0.895575       0.853765       1.922785
N        2.718256       1.224572      -0.676241
N        0.725851      -0.000921       0.000116
N        2.720277      -0.026296       1.396525
C        3.193682       0.027380      -1.372852
H        2.836761       0.046799      -2.408038
H        4.288146       0.028043      -1.376914
C        1.275044      -1.198191      -0.722505
H        0.896707      -2.093624      -0.220874
H        0.895470      -1.171681      -1.748059
C        3.195756      -1.200669       0.662136
H        4.290249      -1.202732       0.663063
H        2.840511      -2.107511       1.163132
N        2.720061      -1.196563      -0.722919
Au      -1.360278      -0.000471       0.001343
Cl      -3.642487       0.001315      -0.003717

C H N Cl 0
6-31g(d)
****
Au     0
S    1   1.00
      2.8090000              1.0000000
S    1   1.00
      1.5950000              1.0000000
S    1   1.00
      0.5327000              1.0000000
S    1   1.00
      0.2826000              1.0000000
S    1   1.00
      0.0598000              1.0000000
P    1   1.00
      3.6840000              1.0000000
P    1   1.00
      1.6660000              1.0000000
P    1   1.00
      0.5989000              1.0000000
P    1   1.00
      0.0977000              1.0000000
P    1   1.00
      0.0279000              1.0000000
D    1   1.00
      1.2870000              1.0000000
D    1   1.00
      0.4335000              1.0000000
D    1   1.00
      0.1396000              1.0000000
F    1   1.00
      1.0500000              1.0000000
****

AU     0
AU-ECP     4     60
g potential
  5
1    622.6287956            -60.0000000
2    136.2843607           -555.5292312
2     33.1549781           -168.0019785
2      9.9894895            -63.0399875
2      3.0481312             -4.2516681
s-g potential
  6
0    194.7374304              3.0000000
1    351.5327447             38.6020880
2    122.3270402            864.8370727
2     32.0914617            374.9935520
2      5.2451812            289.7910100
2      4.4916223           -152.4532773
p-g potential
  4
0    420.6158801              2.0000000
1    109.4417815             73.8885625
2     34.1714280            326.6729872
2      5.9879750            126.5814591
d-g potential
  5
0    219.2666158              3.0000000
1    122.7297786             55.6793149
2     63.1063369            449.1987335
2     18.3684520            215.0269091
2      4.4972844             64.0840995
f-g potential
  5
0    108.5506037              4.0000000
1     56.4795527             51.8065335
2     29.2069159            231.2183113
2      9.5440543            119.0047386
2      2.8965118             15.3424188

