%mem=50000MB
%nprocshared=15
%chk=au-1to3-ts-2-af61-cterm-se-wat-ts.chk
# opt=(ts,readfc,noeigentest) freq=noraman b3lyp/gen pseudo=read

Title Card Required

0 1
Au     2.761791    -0.644943    -0.254639
 N    -7.790187     3.559717     0.343222
 C    -6.397902     3.115289     0.341827
 C    -6.259507     1.626334     0.000802
 O    -7.011083     0.818788     0.567677
 C    -5.809299     3.339168     1.756157
 O    -4.515219     2.801446     1.913662
 N    -5.344068     1.188981    -0.912756
 C    -4.442597     1.969115    -1.747348
 C    -3.085884     2.266851    -1.081488
 O    -2.945153     3.271866    -0.387198
 N    -2.045600     1.400607    -1.269714
 C    -1.943736     0.246426    -2.149813
 C    -2.181344    -1.129085    -1.499892
 O    -2.574126    -2.057971    -2.197188
 C    -0.573412     0.225029    -2.870512
 S     0.941812     0.466535    -1.823931
 N    -1.856654    -1.260242    -0.180437
 C    -1.416312    -2.561227     0.326989
 C     0.113330    -2.618428     0.424186
 C    -2.016630    -2.830509     1.727066
 O    -1.340313    -2.661277     2.733021
 N    -3.300009    -3.299956     1.783709
 C    -4.330181    -3.175081     0.765355
 C    -5.332004    -2.091857     1.170039
 O    -5.508168    -1.757465     2.320131
 O    -5.993151    -1.593058     0.114317
 H    -5.856364     4.417494     1.966660
 H    -6.448675     2.823860     2.480148
 H    -3.919827     3.238126     1.277990
 H    -5.838273     3.740126    -0.359999
 H    -8.339964     2.873873     0.860972
 H    -8.162850     3.564845    -0.604935
 H    -4.884053     2.940355    -1.972439
 H    -4.329449     1.439594    -2.696922
 H    -5.292349     0.176747    -0.994130
 H    -0.519315     1.086815    -3.547464
 H    -0.486305    -0.690199    -3.458332
 H    -2.693872     0.316764    -2.940886
 H    -1.181016     1.705666    -0.827111
 H     0.465683    -3.628230     0.655055
 H     0.488221    -1.969685     1.214268
 H    -1.777210    -3.297923    -0.393149
 H    -1.509477    -0.441494     0.305276
 H    -4.879598    -4.121897     0.669634
 H    -3.906399    -2.956329    -0.214672
 H    -3.662550    -3.297001     2.733726
 H    -6.562518    -0.821482     0.419598
Se     1.034028    -2.153010    -1.288243
Cl     3.767198    -2.220269     1.496166
 C     4.722655     3.560992     1.288375
 C     4.005903     1.333415     1.739765
 C     3.946028     2.230328    -0.534144
 H     5.431298     4.343759     1.576683
 H     4.163460     0.419015     2.315365
 H     2.920449     2.575971    -0.372112
 H     4.070607     1.981368    -1.592386
 H     3.706820     3.930831     1.463002
 H     2.982418     1.686508     1.897467
 N     4.892536     3.272168    -0.150864
 N     4.149743     0.972155     0.271171
 N     4.954915     2.369245     2.122911
 C     6.263690     2.761484    -0.355901
 H     6.406466     2.532172    -1.417305
 H     6.976791     3.541269    -0.070484
 C     5.581043     0.513871     0.056858
 H     5.723930    -0.392010     0.649655
 H     5.699087     0.273262    -1.004014
 C     6.322196     1.876833     1.867121
 H     7.039950     2.648381     2.163579
 H     6.500091     0.981255     2.469782
 N     6.528818     1.551421     0.441945

C H N O S Se Cl 0
6-31g(d)
****
Au     0
S    1   1.00
      2.8090000              1.0000000
S    1   1.00
      1.5950000              1.0000000
S    1   1.00
      0.5327000              1.0000000
S    1   1.00
      0.2826000              1.0000000
S    1   1.00
      0.0598000              1.0000000
P    1   1.00
      3.6840000              1.0000000
P    1   1.00
      1.6660000              1.0000000
P    1   1.00
      0.5989000              1.0000000
P    1   1.00
      0.0977000              1.0000000
P    1   1.00
      0.0279000              1.0000000
D    1   1.00
      1.2870000              1.0000000
D    1   1.00
      0.4335000              1.0000000
D    1   1.00
      0.1396000              1.0000000
F    1   1.00
      1.0500000              1.0000000
****

AU     0
AU-ECP     4     60
g potential
  5
1    622.6287956            -60.0000000
2    136.2843607           -555.5292312
2     33.1549781           -168.0019785
2      9.9894895            -63.0399875
2      3.0481312             -4.2516681
s-g potential
  6
0    194.7374304              3.0000000
1    351.5327447             38.6020880
2    122.3270402            864.8370727
2     32.0914617            374.9935520
2      5.2451812            289.7910100
2      4.4916223           -152.4532773
p-g potential
  4
0    420.6158801              2.0000000
1    109.4417815             73.8885625
2     34.1714280            326.6729872
2      5.9879750            126.5814591
d-g potential
  5
0    219.2666158              3.0000000
1    122.7297786             55.6793149
2     63.1063369            449.1987335
2     18.3684520            215.0269091
2      4.4972844             64.0840995
f-g potential
  5
0    108.5506037              4.0000000
1     56.4795527             51.8065335
2     29.2069159            231.2183113
2      9.5440543            119.0047386
2      2.8965118             15.3424188

