%mem=30000MB
%nprocshared=12
# opt freq=noraman b3lyp/gen
  pseudo=read

Title Card Required

0 1
            79           0        2.700659   -0.285010   -0.319710
            15           0        4.002162    1.548159    0.585263
             6           0        5.799015    1.164504    0.333833
             1           0        5.965366    1.194829   -0.750359
             1           0        5.893028    0.114138    0.629746
             6           0        3.726088    1.687114    2.407263
             1           0        4.367024    2.486641    2.795606
             1           0        4.082811    0.740314    2.828512
             6           0        3.625186    3.199963   -0.170506
             1           0        2.536595    3.242556   -0.277115
             1           0        4.020126    3.156700   -1.193036
             6           0        6.837567    2.023306    1.069855
             1           0        6.830253    3.066854    0.744268
             1           0        6.690153    2.001358    2.153978
             1           0        7.837845    1.624280    0.869298
             6           0        4.126537    4.456917    0.557854
             1           0        3.796800    5.348114    0.012426
             1           0        3.723405    4.528506    1.573121
             1           0        5.216899    4.496898    0.623915
             6           0        2.260057    1.922772    2.796066
             1           0        1.624523    1.096366    2.462968
             1           0        2.171185    1.991110    3.884996
             1           0        1.862851    2.850842    2.370123
             7           0       -7.554142    3.235635    0.002593
             6           0       -6.147461    2.857713    0.131451
             6           0       -5.914671    1.373307   -0.181624
             8           0       -6.671264    0.540555    0.339176
             6           0       -5.703185    3.118632    1.591709
             8           0       -4.412798    2.632123    1.881852
             7           0       -4.913038    0.966023   -1.014540
             6           0       -3.983253    1.774150   -1.788375
             6           0       -2.703713    2.150042   -1.020386
             8           0       -2.688684    3.156503   -0.308612
             7           0       -1.599278    1.362400   -1.136244
             6           0       -1.321964    0.239284   -2.023066
             6           0       -1.529819   -1.174515   -1.437005
             8           0       -1.931556   -2.045730   -2.202624
             6           0        0.075340    0.415523   -2.688120
            16           0        1.450076    1.161899   -1.708671
             7           0       -1.274726   -1.392883   -0.115406
             6           0       -0.895628   -2.743003    0.323379
             6           0        0.635770   -2.883961    0.459540
             6           0       -1.561021   -3.058446    1.679375
             8           0       -0.934298   -2.933333    2.724870
             7           0       -2.843671   -3.535019    1.660808
             6           0       -3.829928   -3.381546    0.606674
             6           0       -4.887816   -2.360058    1.021285
             8           0       -5.125685   -2.085532    2.176408
             8           0       -5.533286   -1.852790   -0.040286
             1           0       -5.808656    4.197042    1.780807
             1           0       -6.391052    2.588964    2.258774
             1           0       -3.781040    3.072564    1.283903
             1           0       -5.556289    3.504068   -0.522579
             1           0       -8.113392    2.522937    0.472343
             1           0       -7.837186    3.216588   -0.975984
             1           0       -4.452551    2.718656   -2.065110
             1           0       -3.765532    1.238333   -2.716191
             1           0       -4.811736   -0.043203   -1.078835
             1           0       -0.041668    1.205637   -3.440497
             1           0        0.368666   -0.504125   -3.194802
             1           0       -2.024896    0.239195   -2.859506
             1           0       -0.789128    1.730997   -0.639759
             1           0        0.924639   -3.912074    0.682272
             1           0        0.981963   -2.268925    1.290169
             1           0       -1.265329   -3.418505   -0.449247
             1           0       -0.902495   -0.624583    0.431377
             1           0       -4.345515   -4.337278    0.432082
             1           0       -3.369335   -3.093017   -0.338572
             1           0       -3.248854   -3.579284    2.592062
             1           0       -6.148747   -1.121817    0.261781
            34           0        1.580339   -2.329803   -1.205637
            17           0        3.969056   -1.752529    1.089036

C H N O S Se P Cl 0
6-31g(d)
****
Au     0
S    1   1.00
      2.8090000              1.0000000
S    1   1.00
      1.5950000              1.0000000
S    1   1.00
      0.5327000              1.0000000
S    1   1.00
      0.2826000              1.0000000
S    1   1.00
      0.0598000              1.0000000
P    1   1.00
      3.6840000              1.0000000
P    1   1.00
      1.6660000              1.0000000
P    1   1.00
      0.5989000              1.0000000
P    1   1.00
      0.0977000              1.0000000
P    1   1.00
      0.0279000              1.0000000
D    1   1.00
      1.2870000              1.0000000
D    1   1.00
      0.4335000              1.0000000
D    1   1.00
      0.1396000              1.0000000
F    1   1.00
      1.0500000              1.0000000
****

AU     0
AU-ECP     4     60
g potential
  5
1    622.6287956            -60.0000000
2    136.2843607           -555.5292312
2     33.1549781           -168.0019785
2      9.9894895            -63.0399875
2      3.0481312             -4.2516681
s-g potential
  6
0    194.7374304              3.0000000
1    351.5327447             38.6020880
2    122.3270402            864.8370727
2     32.0914617            374.9935520
2      5.2451812            289.7910100
2      4.4916223           -152.4532773
p-g potential
  4
0    420.6158801              2.0000000
1    109.4417815             73.8885625
2     34.1714280            326.6729872
2      5.9879750            126.5814591
d-g potential
  5
0    219.2666158              3.0000000
1    122.7297786             55.6793149
2     63.1063369            449.1987335
2     18.3684520            215.0269091
2      4.4972844             64.0840995
f-g potential
  5
0    108.5506037              4.0000000
1     56.4795527             51.8065335
2     29.2069159            231.2183113
2      9.5440543            119.0047386
2      2.8965118             15.3424188

Au 1.78

