%mem=50000MB
%nprocshared=15
# opt freq=noraman rb3lyp/gen pseudo=read

Title Card Required

0 1
 Au                 2.86960000   -0.06820700   -0.30560900
 P                  4.19387500    1.64098500    0.79182200
 C                  5.81635600    1.94306000   -0.04859900
 H                  6.34077300    0.99074600   -0.01306600
 H                  6.38329500    2.65843600    0.55276300
 C                  4.61671500    1.21911400    2.54136300
 H                  5.29585000    1.98965200    2.91980700
 H                  5.18897800    0.27654000    2.48434800
 C                  3.27919800    3.24920900    0.83406100
 H                  2.34461200    3.06061100    1.37886500
 H                  2.97391100    3.46330300   -0.19775500
 C                  5.67074600    2.43507100   -1.49983100
 H                  5.10750700    1.72353800   -2.10374000
 H                  5.17153300    3.40315500   -1.56006200
 H                  6.66502700    2.53872100   -1.94913500
 C                  4.03963900    4.43426800    1.45136400
 H                  3.40100100    5.32845200    1.43456600
 H                  4.31040500    4.25042500    2.49471100
 H                  4.95935500    4.67419000    0.89897500
 C                  3.40837400    1.04366000    3.45982100
 H                  2.73294300    0.25580300    3.09786600
 H                  3.73523200    0.76001000    4.46643800
 H                  2.82422600    1.97011000    3.56318700
 N                 -8.59196900    2.49942700   -0.04761000
 C                 -7.15350100    2.33324400    0.15614700
 C                 -6.68416000    0.90433600   -0.13260500
 O                 -7.32389300   -0.03107600    0.36648000
 C                 -6.83528200    2.65909300    1.63462100
 O                 -5.51776000    2.33787500    2.01082300
 N                 -5.60593900    0.64540600   -0.92761700
 C                 -4.75967700    1.55949100   -1.69591600
 C                 -3.56762400    2.12325500   -0.88392500
 O                 -3.75761400    3.04419800   -0.08257000
 N                 -2.30737300    1.61408700   -1.05635900
 C                 -1.78374600    0.60403100   -1.97923400
 C                 -1.95556600   -0.86007800   -1.49703000
 O                 -2.33583000   -1.72855700   -2.27790100
 C                 -0.29021100    0.92517800   -2.36822800
 S                  0.91334200    1.46650300   -0.96017200
 N                 -1.65102400   -1.09050900   -0.18198100
 C                 -1.10921300   -2.40106300    0.20916100
 C                  0.42564300   -2.35654000    0.33371200
 C                 -1.70588700   -2.80237400    1.58157700
 O                 -1.07982100   -2.57796700    2.61672900
 N                 -2.91070300   -3.44525200    1.58531500
 C                 -3.91453100   -3.44206700    0.54416000
 C                 -5.12682100   -2.61692100    0.98703000
 O                 -5.38200700   -2.39236900    2.14881100
 O                 -5.85475100   -2.19931800   -0.05913400
 H                 -7.09459300    3.71326100    1.80368000
 H                 -7.48911100    2.04014500    2.26802900
 H                 -4.90544500    2.80429700    1.41689700
 H                 -6.62249000    3.05192100   -0.47105300
 H                 -9.06730200    1.71720600    0.40282000
 H                 -8.82058300    2.43844100   -1.03860100
 H                 -5.33056900    2.42363200   -2.02319300
 H                 -4.42741800    1.01676300   -2.58280100
 H                 -5.36941700   -0.33796400   -0.98852300
 H                 -0.33598000    1.84236800   -2.97587200
 H                  0.11062200    0.10737700   -2.97255100
 H                 -2.32249200    0.64912300   -2.93521600
 H                 -1.62041200    2.06609700   -0.44342300
 H                  0.79748900   -3.35096600    0.63136800
 H                  0.70172700   -1.66835200    1.13289200
 H                 -1.40775000   -3.10447000   -0.56632300
 H                 -1.26492800   -0.29976400    0.32528400
 H                 -4.26559600   -4.46744700    0.34103700
 H                 -3.52545200   -3.04738000   -0.40262300
 H                 -3.29542100   -3.52404500    2.52526100
 H                 -6.56781000   -1.56201200    0.25592100
 Se                 1.32612900   -1.79154200   -1.33899400
 Br                 4.88541900   -1.71909000    0.21827100

C H N O S Se P Br 0
6-31g(d)
****
Au     0
S    1   1.00
      2.8090000              1.0000000
S    1   1.00
      1.5950000              1.0000000
S    1   1.00
      0.5327000              1.0000000
S    1   1.00
      0.2826000              1.0000000
S    1   1.00
      0.0598000              1.0000000
P    1   1.00
      3.6840000              1.0000000
P    1   1.00
      1.6660000              1.0000000
P    1   1.00
      0.5989000              1.0000000
P    1   1.00
      0.0977000              1.0000000
P    1   1.00
      0.0279000              1.0000000
D    1   1.00
      1.2870000              1.0000000
D    1   1.00
      0.4335000              1.0000000
D    1   1.00
      0.1396000              1.0000000
F    1   1.00
      1.0500000              1.0000000
****

AU     0
AU-ECP     4     60
g potential
  5
1    622.6287956            -60.0000000
2    136.2843607           -555.5292312
2     33.1549781           -168.0019785
2      9.9894895            -63.0399875
2      3.0481312             -4.2516681
s-g potential
  6
0    194.7374304              3.0000000
1    351.5327447             38.6020880
2    122.3270402            864.8370727
2     32.0914617            374.9935520
2      5.2451812            289.7910100
2      4.4916223           -152.4532773
p-g potential
  4
0    420.6158801              2.0000000
1    109.4417815             73.8885625
2     34.1714280            326.6729872
2      5.9879750            126.5814591
d-g potential
  5
0    219.2666158              3.0000000
1    122.7297786             55.6793149
2     63.1063369            449.1987335
2     18.3684520            215.0269091
2      4.4972844             64.0840995
f-g potential
  5
0    108.5506037              4.0000000
1     56.4795527             51.8065335
2     29.2069159            231.2183113
2      9.5440543            119.0047386
2      2.8965118             15.3424188

