%mem=20000MB
%nprocshared=8
%chk=au-1to3-ts-2-af-no3-cterm-se-wat-ts.chk
# opt=(ts,readfc,noeigentest) freq=noraman b3lyp/gen pseudo=read

Title Card Required

0 1
            79           0        3.188242    0.083487   -0.198973
            15           0        4.381664    1.814644    0.780651
             6           0        5.219189    2.905274   -0.461826
             1           0        5.828760    3.637312    0.082712
             1           0        4.423190    3.462898   -0.971100
             6           0        5.729912    1.197770    1.885637
             1           0        6.275138    2.062406    2.284687
             1           0        6.407631    0.633970    1.238278
             6           0        3.325823    2.949998    1.801197
             1           0        2.800428    2.311987    2.521394
             1           0        2.555643    3.332852    1.120115
             6           0        6.073668    2.141589   -1.484503
             1           0        6.865205    1.558309   -1.005123
             1           0        5.464677    1.444976   -2.069532
             1           0        6.544530    2.848486   -2.176253
             6           0        4.039400    4.102543    2.520870
             1           0        3.312338    4.695009    3.087151
             1           0        4.788855    3.737782    3.230893
             1           0        4.538121    4.778583    1.818625
             6           0        5.231748    0.284105    3.012792
             1           0        4.741314   -0.603999    2.601329
             1           0        6.079169   -0.055326    3.617551
             1           0        4.527545    0.791198    3.682009
             7           0       -8.877068    2.312186   -0.912597
             6           0       -7.547622    2.201616   -0.307010
             6           0       -7.072679    0.746285   -0.217230
             8           0       -7.785586   -0.091959    0.354925
             6           0       -7.599106    2.796255    1.116500
             8           0       -6.434771    2.542446    1.868857
             7           0       -5.897777    0.362183   -0.802904
             6           0       -4.939815    1.115721   -1.591921
             6           0       -3.876872    1.847028   -0.744183
             8           0       -4.205910    2.674255    0.101016
             7           0       -2.554070    1.596283   -0.986811
             6           0       -1.953058    0.639893   -1.912262
             6           0       -1.974367   -0.821164   -1.424169
             8           0       -2.255562   -1.729600   -2.194515
             6           0       -0.514254    1.066383   -2.277848
            16           0        0.729230    1.117352   -0.897682
             7           0       -1.648302   -1.012444   -0.105482
             6           0       -1.086102   -2.289624    0.334310
             6           0        0.441866   -2.191743    0.480854
             6           0       -1.689918   -2.745427    1.690365
             8           0       -0.977185   -2.854907    2.681575
             7           0       -3.021855   -3.033156    1.715563
             6           0       -3.988050   -2.833321    0.657963
             6           0       -5.382811   -2.650640    1.247862
             8           0       -5.663528   -2.766382    2.421138
             8           0       -6.229727   -2.289330    0.265419
             1           0       -7.824815    3.869355    1.021221
             1           0       -8.427192    2.325709    1.656518
             1           0       -5.661005    2.802646    1.336724
             1           0       -6.852678    2.801138   -0.903104
             1           0       -9.488829    1.630404   -0.463186
             1           0       -8.841879    2.058282   -1.898862
             1           0       -5.444189    1.886372   -2.183805
             1           0       -4.492101    0.413929   -2.298260
             1           0       -5.718960   -0.634085   -0.703100
             1           0       -0.540562    2.090663   -2.668744
             1           0       -0.141728    0.413109   -3.068649
             1           0       -2.510921    0.638415   -2.852746
             1           0       -1.928775    2.135567   -0.394477
             1           0        0.885210   -3.175529    0.660924
             1           0        0.719661   -1.561376    1.325302
             1           0       -1.350120   -3.011127   -0.444854
             1           0       -1.326825   -0.195436    0.402478
             1           0       -4.000591   -3.648494   -0.082749
             1           0       -3.766172   -1.914066    0.110968
             1           0       -3.406840   -3.247138    2.631119
             1           0       -7.023318   -1.789844    0.601405
            34           0        1.385901   -1.515522   -1.128761
             7           0        5.316531   -2.171640   -0.527935
             8           0        4.014435   -1.896919   -0.643239
             8           0        5.683619   -3.323755   -0.760100
             8           0        6.074439   -1.243739   -0.185101

C H N O S Se P 0
6-31g(d)
****
Au     0
S    1   1.00
      2.8090000              1.0000000
S    1   1.00
      1.5950000              1.0000000
S    1   1.00
      0.5327000              1.0000000
S    1   1.00
      0.2826000              1.0000000
S    1   1.00
      0.0598000              1.0000000
P    1   1.00
      3.6840000              1.0000000
P    1   1.00
      1.6660000              1.0000000
P    1   1.00
      0.5989000              1.0000000
P    1   1.00
      0.0977000              1.0000000
P    1   1.00
      0.0279000              1.0000000
D    1   1.00
      1.2870000              1.0000000
D    1   1.00
      0.4335000              1.0000000
D    1   1.00
      0.1396000              1.0000000
F    1   1.00
      1.0500000              1.0000000
****

AU     0
AU-ECP     4     60
g potential
  5
1    622.6287956            -60.0000000
2    136.2843607           -555.5292312
2     33.1549781           -168.0019785
2      9.9894895            -63.0399875
2      3.0481312             -4.2516681
s-g potential
  6
0    194.7374304              3.0000000
1    351.5327447             38.6020880
2    122.3270402            864.8370727
2     32.0914617            374.9935520
2      5.2451812            289.7910100
2      4.4916223           -152.4532773
p-g potential
  4
0    420.6158801              2.0000000
1    109.4417815             73.8885625
2     34.1714280            326.6729872
2      5.9879750            126.5814591
d-g potential
  5
0    219.2666158              3.0000000
1    122.7297786             55.6793149
2     63.1063369            449.1987335
2     18.3684520            215.0269091
2      4.4972844             64.0840995
f-g potential
  5
0    108.5506037              4.0000000
1     56.4795527             51.8065335
2     29.2069159            231.2183113
2      9.5440543            119.0047386
2      2.8965118             15.3424188

$nbo bndidx $end

